/*---------------------------------------------------------------------------*\
| =========                 |                                                 |
| \\      /  F ield         | OpenFOAM: The Open Source CFD Toolbox           |
|  \\    /   O peration     | Version:  2.1.0                                 |
|   \\  /    A nd           | Web:      www.OpenFOAM.org                      |
|    \\/     M anipulation  |                                                 |
\*---------------------------------------------------------------------------*/
Build  : 2.1.0-0bc225064152
Exec   : IMPES
Date   : May 20 2012
Time   : 17:01:35
Host   : "rafael-vb"
PID    : 9592
Case   : /home/rafael/OpenFOAM/rafael-2.1.0/SimulatorIMPES/v104/CasesDiss/UFPE2D
nProcs : 1
sigFpe : Enabling floating point exception trapping (FOAM_SIGFPE).
fileModificationChecking : Monitoring run-time modified files using timeStampMaster
allowSystemOperations : Disallowing user-supplied system call operations

// * * * * * * * * * * * * * * * * * * * * * * * * * * * * * * * * * * * * * //
Create time

Create mesh for time = 0

Reading fields                     [  OK  ]
Reading problem parameters         [  OK  ]
Creating tables                    [  OK  ]
Initializating problem fields      [  OK  ]
Setting sources                    [  OK  ]
Calculationg equation coefficients [  OK  ]

Starting time loop

Time = 11

Solving Pressure Equation
DICPCG:  Solving for po, Initial residual = 1, Final residual = 9.48455e-06, No Iterations 401
Solving Saturation Equation
diagonal:  Solving for sw, Initial residual = 0, Final residual = 0, No Iterations 0
Q_inj = 196575
Q_prod = 196575
qw_prod = -0
qo_prod = -196575

Imb = 1


Cmb = 1


NewDeltaT = 11

ExecutionTime = 2.89 s  ClockTime = 3 s

Time = 22

Solving Pressure Equation
DICPCG:  Solving for po, Initial residual = 0.283523, Final residual = 1.17779e-06, No Iterations 2
Solving Saturation Equation
diagonal:  Solving for sw, Initial residual = 0, Final residual = 0, No Iterations 0
Q_inj = 196575
Q_prod = 196575
qw_prod = -0
qo_prod = -196575

Imb = 1


Cmb = 1


NewDeltaT = 11

ExecutionTime = 3.45 s  ClockTime = 4 s

Time = 33

Solving Pressure Equation
DICPCG:  Solving for po, Initial residual = 0.0634492, Final residual = 9.10849e-06, No Iterations 132
Solving Saturation Equation
diagonal:  Solving for sw, Initial residual = 0, Final residual = 0, No Iterations 0
Q_inj = 196575
Q_prod = 196575
qw_prod = -0
qo_prod = -196575

Imb = 1


Cmb = 1


NewDeltaT = 11

ExecutionTime = 4.54 s  ClockTime = 6 s

Time = 44

Solving Pressure Equation
DICPCG:  Solving for po, Initial residual = 0.0191187, Final residual = 9.69747e-06, No Iterations 127
Solving Saturation Equation
diagonal:  Solving for sw, Initial residual = 0, Final residual = 0, No Iterations 0
Q_inj = 196575
Q_prod = 196575
qw_prod = -0
qo_prod = -196575

Imb = 1


Cmb = 1


NewDeltaT = 11

ExecutionTime = 5.28 s  ClockTime = 8 s

Time = 55

Solving Pressure Equation
DICPCG:  Solving for po, Initial residual = 0.0267262, Final residual = 7.88179e-06, No Iterations 133
Solving Saturation Equation
diagonal:  Solving for sw, Initial residual = 0, Final residual = 0, No Iterations 0
Q_inj = 196575
Q_prod = 196575
qw_prod = -0
qo_prod = -196575

Imb = 1


Cmb = 1


NewDeltaT = 11

ExecutionTime = 6.39 s  ClockTime = 9 s

Time = 66

Solving Pressure Equation
DICPCG:  Solving for po, Initial residual = 0.0151184, Final residual = 9.63505e-06, No Iterations 255
Solving Saturation Equation
diagonal:  Solving for sw, Initial residual = 0, Final residual = 0, No Iterations 0
Q_inj = 196575
Q_prod = 196575
qw_prod = -0
qo_prod = -196575

Imb = 1


Cmb = 1


NewDeltaT = 11

ExecutionTime = 7.57 s  ClockTime = 10 s

Time = 77

Solving Pressure Equation
DICPCG:  Solving for po, Initial residual = 0.0141553, Final residual = 9.90156e-06, No Iterations 122
Solving Saturation Equation
diagonal:  Solving for sw, Initial residual = 0, Final residual = 0, No Iterations 0
Q_inj = 196575
Q_prod = 196575
qw_prod = -0
qo_prod = -196575

Imb = 1


Cmb = 1


NewDeltaT = 11

ExecutionTime = 8.35 s  ClockTime = 11 s

Time = 88

Solving Pressure Equation
DICPCG:  Solving for po, Initial residual = 0.0115098, Final residual = 9.72533e-06, No Iterations 124
Solving Saturation Equation
diagonal:  Solving for sw, Initial residual = 0, Final residual = 0, No Iterations 0
Q_inj = 196575
Q_prod = 196575
qw_prod = -0
qo_prod = -196575

Imb = 1


Cmb = 1


NewDeltaT = 11

ExecutionTime = 9.24 s  ClockTime = 12 s

Time = 99

Solving Pressure Equation
DICPCG:  Solving for po, Initial residual = 0.0096102, Final residual = 8.95054e-06, No Iterations 127
Solving Saturation Equation
diagonal:  Solving for sw, Initial residual = 0, Final residual = 0, No Iterations 0
Q_inj = 196575
Q_prod = 196575
qw_prod = -0
qo_prod = -196575

Imb = 1


Cmb = 1


NewDeltaT = 11

ExecutionTime = 10.22 s  ClockTime = 14 s

Time = 110

Solving Pressure Equation
DICPCG:  Solving for po, Initial residual = 0.00878595, Final residual = 9.76153e-06, No Iterations 132
Solving Saturation Equation
diagonal:  Solving for sw, Initial residual = 0, Final residual = 0, No Iterations 0
Q_inj = 196575
Q_prod = 196575
qw_prod = -0
qo_prod = -196575

Imb = 1


Cmb = 1


NewDeltaT = 11

ExecutionTime = 10.9 s  ClockTime = 14 s

Time = 121

Solving Pressure Equation
DICPCG:  Solving for po, Initial residual = 0.00783976, Final residual = 9.7094e-06, No Iterations 134
Solving Saturation Equation
diagonal:  Solving for sw, Initial residual = 0, Final residual = 0, No Iterations 0
Q_inj = 196575
Q_prod = 196575
qw_prod = -0
qo_prod = -196575

Imb = 1


Cmb = 1


NewDeltaT = 11

ExecutionTime = 11.47 s  ClockTime = 15 s

Time = 132

Solving Pressure Equation
DICPCG:  Solving for po, Initial residual = 0.00684863, Final residual = 9.85484e-06, No Iterations 253
Solving Saturation Equation
diagonal:  Solving for sw, Initial residual = 0, Final residual = 0, No Iterations 0
Q_inj = 196575
Q_prod = 196575
qw_prod = -0
qo_prod = -196575

Imb = 1


Cmb = 1


NewDeltaT = 11

ExecutionTime = 12.24 s  ClockTime = 16 s

Time = 143

Solving Pressure Equation
DICPCG:  Solving for po, Initial residual = 0.00650219, Final residual = 8.67483e-06, No Iterations 122
Solving Saturation Equation
diagonal:  Solving for sw, Initial residual = 0, Final residual = 0, No Iterations 0
Q_inj = 196575
Q_prod = 196575
qw_prod = -0
qo_prod = -196575

Imb = 1


Cmb = 1


NewDeltaT = 11

ExecutionTime = 13.57 s  ClockTime = 18 s

Time = 154

Solving Pressure Equation
DICPCG:  Solving for po, Initial residual = 0.00595149, Final residual = 9.918e-06, No Iterations 123
Solving Saturation Equation
diagonal:  Solving for sw, Initial residual = 0, Final residual = 0, No Iterations 0
Q_inj = 196575
Q_prod = 196575
qw_prod = -0
qo_prod = -196575

Imb = 1


Cmb = 1


NewDeltaT = 11

ExecutionTime = 14.44 s  ClockTime = 19 s

Time = 165

Solving Pressure Equation
DICPCG:  Solving for po, Initial residual = 0.00536029, Final residual = 9.80366e-06, No Iterations 126
Solving Saturation Equation
diagonal:  Solving for sw, Initial residual = 0, Final residual = 0, No Iterations 0
Q_inj = 196575
Q_prod = 196575
qw_prod = -0
qo_prod = -196575

Imb = 1


Cmb = 1


NewDeltaT = 11

ExecutionTime = 15.02 s  ClockTime = 20 s

Time = 176

Solving Pressure Equation
DICPCG:  Solving for po, Initial residual = 0.00515311, Final residual = 8.82011e-06, No Iterations 132
Solving Saturation Equation
diagonal:  Solving for sw, Initial residual = 0, Final residual = 0, No Iterations 0
Q_inj = 196575
Q_prod = 196575
qw_prod = -0
qo_prod = -196575

Imb = 1


Cmb = 1


NewDeltaT = 11

ExecutionTime = 15.62 s  ClockTime = 20 s

Time = 187

Solving Pressure Equation
DICPCG:  Solving for po, Initial residual = 0.00490644, Final residual = 9.66072e-06, No Iterations 133
Solving Saturation Equation
diagonal:  Solving for sw, Initial residual = 0, Final residual = 0, No Iterations 0
Q_inj = 196575
Q_prod = 196575
qw_prod = -0
qo_prod = -196575

Imb = 1


Cmb = 1


NewDeltaT = 11

ExecutionTime = 16.85 s  ClockTime = 22 s

Time = 198

Solving Pressure Equation
DICPCG:  Solving for po, Initial residual = 0.00444449, Final residual = 9.68938e-06, No Iterations 242
Solving Saturation Equation
diagonal:  Solving for sw, Initial residual = 0, Final residual = 0, No Iterations 0
Q_inj = 196575
Q_prod = 196575
qw_prod = -0
qo_prod = -196575

Imb = 1


Cmb = 1


NewDeltaT = 11

ExecutionTime = 17.9 s  ClockTime = 23 s

Time = 209

Solving Pressure Equation
DICPCG:  Solving for po, Initial residual = 0.00423941, Final residual = 9.08091e-06, No Iterations 121
Solving Saturation Equation
diagonal:  Solving for sw, Initial residual = 0, Final residual = 0, No Iterations 0
Q_inj = 196575
Q_prod = 196575
qw_prod = -0
qo_prod = -196575

Imb = 1


Cmb = 1


NewDeltaT = 11

ExecutionTime = 18.57 s  ClockTime = 24 s

Time = 220

Solving Pressure Equation
DICPCG:  Solving for po, Initial residual = 0.00413667, Final residual = 9.6222e-06, No Iterations 123
Solving Saturation Equation
diagonal:  Solving for sw, Initial residual = 0, Final residual = 0, No Iterations 0
Q_inj = 196575
Q_prod = 196575
qw_prod = -0
qo_prod = -196575

Imb = 1


Cmb = 1


NewDeltaT = 11

ExecutionTime = 19.5 s  ClockTime = 25 s

Time = 231

Solving Pressure Equation
DICPCG:  Solving for po, Initial residual = 0.00393142, Final residual = 9.62047e-06, No Iterations 126
Solving Saturation Equation
diagonal:  Solving for sw, Initial residual = 0, Final residual = 0, No Iterations 0
Q_inj = 196575
Q_prod = 196575
qw_prod = -0
qo_prod = -196575

Imb = 1


Cmb = 1


NewDeltaT = 11

ExecutionTime = 20.41 s  ClockTime = 27 s

Time = 242

Solving Pressure Equation
DICPCG:  Solving for po, Initial residual = 0.00368473, Final residual = 9.15727e-06, No Iterations 132
Solving Saturation Equation
diagonal:  Solving for sw, Initial residual = 0, Final residual = 0, No Iterations 0
Q_inj = 196575
Q_prod = 196575
qw_prod = -0
qo_prod = -196575

Imb = 1


Cmb = 1


NewDeltaT = 11

ExecutionTime = 20.96 s  ClockTime = 27 s

Time = 253

Solving Pressure Equation
DICPCG:  Solving for po, Initial residual = 0.00349693, Final residual = 9.70449e-06, No Iterations 133
Solving Saturation Equation
diagonal:  Solving for sw, Initial residual = 0, Final residual = 0, No Iterations 0
Q_inj = 196575
Q_prod = 196575
qw_prod = -0
qo_prod = -196575

Imb = 1


Cmb = 1


NewDeltaT = 11

ExecutionTime = 21.48 s  ClockTime = 28 s

Time = 264

Solving Pressure Equation
DICPCG:  Solving for po, Initial residual = 0.00341718, Final residual = 9.94482e-06, No Iterations 241
Solving Saturation Equation
diagonal:  Solving for sw, Initial residual = 0, Final residual = 0, No Iterations 0
Q_inj = 196575
Q_prod = 196575
qw_prod = -0
qo_prod = -196575

Imb = 1


Cmb = 1


NewDeltaT = 11

ExecutionTime = 22.9 s  ClockTime = 30 s

Time = 275

Solving Pressure Equation
DICPCG:  Solving for po, Initial residual = 0.00331443, Final residual = 9.29946e-06, No Iterations 120
Solving Saturation Equation
diagonal:  Solving for sw, Initial residual = 0, Final residual = 0, No Iterations 0
Q_inj = 196575
Q_prod = 196575
qw_prod = -0
qo_prod = -196575

Imb = 1


Cmb = 1


NewDeltaT = 11

ExecutionTime = 23.89 s  ClockTime = 31 s

Time = 286

Solving Pressure Equation
DICPCG:  Solving for po, Initial residual = 0.00315865, Final residual = 9.37283e-06, No Iterations 123
Solving Saturation Equation
diagonal:  Solving for sw, Initial residual = 0, Final residual = 0, No Iterations 0
Q_inj = 196575
Q_prod = 196575
qw_prod = -0
qo_prod = -196575

Imb = 1


Cmb = 1


NewDeltaT = 11

ExecutionTime = 24.63 s  ClockTime = 32 s

Time = 297

Solving Pressure Equation
DICPCG:  Solving for po, Initial residual = 0.0030224, Final residual = 8.98754e-06, No Iterations 125
Solving Saturation Equation
diagonal:  Solving for sw, Initial residual = 0, Final residual = 0, No Iterations 0
Q_inj = 196575
Q_prod = 196575
qw_prod = -0
qo_prod = -196575

Imb = 1


Cmb = 1


NewDeltaT = 11

ExecutionTime = 25.11 s  ClockTime = 32 s

Time = 308

Solving Pressure Equation
DICPCG:  Solving for po, Initial residual = 0.00292753, Final residual = 8.82907e-06, No Iterations 132
Solving Saturation Equation
diagonal:  Solving for sw, Initial residual = 0, Final residual = 0, No Iterations 0
Q_inj = 196575
Q_prod = 196575
qw_prod = -0
qo_prod = -196575

Imb = 1


Cmb = 1


NewDeltaT = 11

ExecutionTime = 25.74 s  ClockTime = 33 s

Time = 319

Solving Pressure Equation
DICPCG:  Solving for po, Initial residual = 0.00285848, Final residual = 9.22247e-06, No Iterations 132
Solving Saturation Equation
diagonal:  Solving for sw, Initial residual = 0, Final residual = 0, No Iterations 0
Q_inj = 196575
Q_prod = 196575
qw_prod = -0
qo_prod = -196575

Imb = 1


Cmb = 1


NewDeltaT = 11

ExecutionTime = 27.11 s  ClockTime = 35 s

Time = 330

Solving Pressure Equation
DICPCG:  Solving for po, Initial residual = 0.0027541, Final residual = 9.93905e-06, No Iterations 237
Solving Saturation Equation
diagonal:  Solving for sw, Initial residual = 0, Final residual = 0, No Iterations 0
Q_inj = 196575
Q_prod = 196575
qw_prod = -0
qo_prod = -196575

Imb = 1


Cmb = 1


NewDeltaT = 11

ExecutionTime = 28.33 s  ClockTime = 36 s

Time = 341

Solving Pressure Equation
DICPCG:  Solving for po, Initial residual = 0.00266658, Final residual = 8.62921e-06, No Iterations 121
Solving Saturation Equation
diagonal:  Solving for sw, Initial residual = 0, Final residual = 0, No Iterations 0
Q_inj = 196575
Q_prod = 196575
qw_prod = -0
qo_prod = -196575

Imb = 1


Cmb = 1


NewDeltaT = 11

ExecutionTime = 28.93 s  ClockTime = 37 s

Time = 352

Solving Pressure Equation
DICPCG:  Solving for po, Initial residual = 0.00259772, Final residual = 8.732e-06, No Iterations 125
Solving Saturation Equation
diagonal:  Solving for sw, Initial residual = 0, Final residual = 0, No Iterations 0
Q_inj = 196575
Q_prod = 196575
qw_prod = -0
qo_prod = -196575

Imb = 1


Cmb = 1


NewDeltaT = 11

ExecutionTime = 30.04 s  ClockTime = 38 s

Time = 363

Solving Pressure Equation
DICPCG:  Solving for po, Initial residual = 0.00251471, Final residual = 9.81342e-06, No Iterations 126
Solving Saturation Equation
diagonal:  Solving for sw, Initial residual = 0, Final residual = 0, No Iterations 0
Q_inj = 196575
Q_prod = 196575
qw_prod = -0
qo_prod = -196575

Imb = 1


Cmb = 1


NewDeltaT = 11

ExecutionTime = 30.99 s  ClockTime = 40 s

Time = 374

Solving Pressure Equation
DICPCG:  Solving for po, Initial residual = 0.00245962, Final residual = 9.64591e-06, No Iterations 131
Solving Saturation Equation
diagonal:  Solving for sw, Initial residual = 0, Final residual = 0, No Iterations 0
Q_inj = 196575
Q_prod = 196575
qw_prod = -0
qo_prod = -196575

Imb = 1


Cmb = 1


NewDeltaT = 11

ExecutionTime = 31.56 s  ClockTime = 40 s

Time = 385

Solving Pressure Equation
DICPCG:  Solving for po, Initial residual = 0.00239482, Final residual = 9.86872e-06, No Iterations 251
Solving Saturation Equation
diagonal:  Solving for sw, Initial residual = 0, Final residual = 0, No Iterations 0
Q_inj = 196575
Q_prod = 196575
qw_prod = -0
qo_prod = -196575

Imb = 1


Cmb = 1


NewDeltaT = 11

ExecutionTime = 32.21 s  ClockTime = 41 s

Time = 396

Solving Pressure Equation
DICPCG:  Solving for po, Initial residual = 0.00232329, Final residual = 9.79242e-06, No Iterations 120
Solving Saturation Equation
diagonal:  Solving for sw, Initial residual = 0, Final residual = 0, No Iterations 0
Q_inj = 196575
Q_prod = 196575
qw_prod = -0
qo_prod = -196575

Imb = 1


Cmb = 1


NewDeltaT = 11

ExecutionTime = 33.39 s  ClockTime = 42 s

Time = 407

Solving Pressure Equation
DICPCG:  Solving for po, Initial residual = 0.0022579, Final residual = 9.17828e-06, No Iterations 124
Solving Saturation Equation
diagonal:  Solving for sw, Initial residual = 0, Final residual = 0, No Iterations 0
Q_inj = 196575
Q_prod = 196575
qw_prod = -0
qo_prod = -196575

Imb = 1


Cmb = 1


NewDeltaT = 11

ExecutionTime = 34.45 s  ClockTime = 44 s

Time = 418

Solving Pressure Equation
DICPCG:  Solving for po, Initial residual = 0.00221805, Final residual = 9.86371e-06, No Iterations 125
Solving Saturation Equation
diagonal:  Solving for sw, Initial residual = 0, Final residual = 0, No Iterations 0
Q_inj = 196575
Q_prod = 196575
qw_prod = -0
qo_prod = -196575

Imb = 1


Cmb = 1


NewDeltaT = 11

ExecutionTime = 35.05 s  ClockTime = 44 s

Time = 429

Solving Pressure Equation
DICPCG:  Solving for po, Initial residual = 0.00217381, Final residual = 9.85417e-06, No Iterations 127
Solving Saturation Equation
diagonal:  Solving for sw, Initial residual = 0, Final residual = 0, No Iterations 0
Q_inj = 196575
Q_prod = 196575
qw_prod = -0
qo_prod = -196575

Imb = 1


Cmb = 1


NewDeltaT = 11

ExecutionTime = 35.6 s  ClockTime = 45 s

Time = 440

Solving Pressure Equation
DICPCG:  Solving for po, Initial residual = 0.00212176, Final residual = 9.646e-06, No Iterations 131
Solving Saturation Equation
diagonal:  Solving for sw, Initial residual = 0, Final residual = 0, No Iterations 0
Q_inj = 196575
Q_prod = 196575
qw_prod = -0
qo_prod = -196575

Imb = 1


Cmb = 1


NewDeltaT = 11

ExecutionTime = 36.6 s  ClockTime = 46 s

Time = 451

Solving Pressure Equation
DICPCG:  Solving for po, Initial residual = 0.00205896, Final residual = 9.33795e-06, No Iterations 252
Solving Saturation Equation
diagonal:  Solving for sw, Initial residual = 0, Final residual = 0, No Iterations 0
Q_inj = 196575
Q_prod = 196575
qw_prod = -0
qo_prod = -196575

Imb = 1


Cmb = 1


NewDeltaT = 11

ExecutionTime = 37.75 s  ClockTime = 48 s

Time = 462

Solving Pressure Equation
DICPCG:  Solving for po, Initial residual = 0.00202604, Final residual = 9.33456e-06, No Iterations 120
Solving Saturation Equation
diagonal:  Solving for sw, Initial residual = 0, Final residual = 0, No Iterations 0
Q_inj = 196575
Q_prod = 196575
qw_prod = -0
qo_prod = -196575

Imb = 1


Cmb = 1


NewDeltaT = 11

ExecutionTime = 38.43 s  ClockTime = 49 s

Time = 473

Solving Pressure Equation
DICPCG:  Solving for po, Initial residual = 0.00198491, Final residual = 9.00206e-06, No Iterations 124
Solving Saturation Equation
diagonal:  Solving for sw, Initial residual = 0, Final residual = 0, No Iterations 0
Q_inj = 196575
Q_prod = 196575
qw_prod = -0
qo_prod = -196575

Imb = 1


Cmb = 1


NewDeltaT = 11

ExecutionTime = 39.16 s  ClockTime = 49 s

Time = 484

Solving Pressure Equation
DICPCG:  Solving for po, Initial residual = 0.0019381, Final residual = 9.88594e-06, No Iterations 125
Solving Saturation Equation
diagonal:  Solving for sw, Initial residual = 0, Final residual = 0, No Iterations 0
Q_inj = 196575
Q_prod = 196575
qw_prod = -0
qo_prod = -196575

Imb = 1


Cmb = 1


NewDeltaT = 11

ExecutionTime = 40.46 s  ClockTime = 51 s

Time = 495

Solving Pressure Equation
DICPCG:  Solving for po, Initial residual = 0.00190115, Final residual = 9.82686e-06, No Iterations 130
Solving Saturation Equation
diagonal:  Solving for sw, Initial residual = 0, Final residual = 0, No Iterations 0
Q_inj = 196575
Q_prod = 196575
qw_prod = -0
qo_prod = -196575

Imb = 1


Cmb = 1


NewDeltaT = 11

ExecutionTime = 41.39 s  ClockTime = 52 s

Time = 506

Solving Pressure Equation
DICPCG:  Solving for po, Initial residual = 0.00187401, Final residual = 9.62128e-06, No Iterations 251
Solving Saturation Equation
diagonal:  Solving for sw, Initial residual = 0, Final residual = 0, No Iterations 0
Q_inj = 196575
Q_prod = 196575
qw_prod = -0
qo_prod = -196575

Imb = 1


Cmb = 1


NewDeltaT = 11

ExecutionTime = 42.2 s  ClockTime = 53 s

Time = 517

Solving Pressure Equation
DICPCG:  Solving for po, Initial residual = 0.00182998, Final residual = 9.5717e-06, No Iterations 120
Solving Saturation Equation
diagonal:  Solving for sw, Initial residual = 0, Final residual = 0, No Iterations 0
Q_inj = 196575
Q_prod = 196575
qw_prod = -0
qo_prod = -196575

Imb = 1


Cmb = 1


NewDeltaT = 11

ExecutionTime = 42.99 s  ClockTime = 54 s

Time = 528

Solving Pressure Equation
DICPCG:  Solving for po, Initial residual = 0.00179379, Final residual = 8.8913e-06, No Iterations 124
Solving Saturation Equation
diagonal:  Solving for sw, Initial residual = 0, Final residual = 0, No Iterations 0
Q_inj = 196575
Q_prod = 196575
qw_prod = -0
qo_prod = -196575

Imb = 1


Cmb = 1


NewDeltaT = 11

ExecutionTime = 44.34 s  ClockTime = 56 s

Time = 539

Solving Pressure Equation
DICPCG:  Solving for po, Initial residual = 0.00176726, Final residual = 9.52753e-06, No Iterations 125
Solving Saturation Equation
diagonal:  Solving for sw, Initial residual = 0, Final residual = 0, No Iterations 0
Q_inj = 196575
Q_prod = 196575
qw_prod = -0
qo_prod = -196575

Imb = 1


Cmb = 1


NewDeltaT = 11

ExecutionTime = 45.16 s  ClockTime = 57 s

Time = 550

Solving Pressure Equation
DICPCG:  Solving for po, Initial residual = 0.00174207, Final residual = 9.48914e-06, No Iterations 130
Solving Saturation Equation
diagonal:  Solving for sw, Initial residual = 0, Final residual = 0, No Iterations 0
Q_inj = 196575
Q_prod = 196575
qw_prod = -0
qo_prod = -196575

Imb = 1


Cmb = 1


NewDeltaT = 11

ExecutionTime = 46.35 s  ClockTime = 58 s

Time = 561

Solving Pressure Equation
DICPCG:  Solving for po, Initial residual = 0.00170726, Final residual = 9.76338e-06, No Iterations 130
Solving Saturation Equation
diagonal:  Solving for sw, Initial residual = 0, Final residual = 0, No Iterations 0
Q_inj = 196575
Q_prod = 196575
qw_prod = -0
qo_prod = -196575

Imb = 1


Cmb = 1


NewDeltaT = 11

ExecutionTime = 47.76 s  ClockTime = 60 s

Time = 572

Solving Pressure Equation
DICPCG:  Solving for po, Initial residual = 0.00167123, Final residual = 9.11904e-06, No Iterations 252
Solving Saturation Equation
diagonal:  Solving for sw, Initial residual = 0, Final residual = 0, No Iterations 0
Q_inj = 196575
Q_prod = 196575
qw_prod = -0
qo_prod = -196575

Imb = 1


Cmb = 1


NewDeltaT = 11

ExecutionTime = 49.61 s  ClockTime = 62 s

Time = 583

Solving Pressure Equation
DICPCG:  Solving for po, Initial residual = 0.00164341, Final residual = 9.38769e-06, No Iterations 120
Solving Saturation Equation
diagonal:  Solving for sw, Initial residual = 0, Final residual = 0, No Iterations 0
Q_inj = 196575
Q_prod = 196575
qw_prod = -0
qo_prod = -196575

Imb = 1


Cmb = 1


NewDeltaT = 11

ExecutionTime = 50.94 s  ClockTime = 63 s

Time = 594

Solving Pressure Equation
DICPCG:  Solving for po, Initial residual = 0.00161885, Final residual = 9.74206e-06, No Iterations 123
Solving Saturation Equation
diagonal:  Solving for sw, Initial residual = 0, Final residual = 0, No Iterations 0
Q_inj = 196575
Q_prod = 196575
qw_prod = -0
qo_prod = -196575

Imb = 1


Cmb = 1


NewDeltaT = 11

ExecutionTime = 52.29 s  ClockTime = 65 s

Time = 605

Solving Pressure Equation
DICPCG:  Solving for po, Initial residual = 0.00159833, Final residual = 9.98895e-06, No Iterations 128
Solving Saturation Equation
diagonal:  Solving for sw, Initial residual = 0, Final residual = 0, No Iterations 0
Q_inj = 196575
Q_prod = 196575
qw_prod = -0
qo_prod = -196575

Imb = 1


Cmb = 1


NewDeltaT = 11

ExecutionTime = 53.16 s  ClockTime = 66 s

Time = 616

Solving Pressure Equation
DICPCG:  Solving for po, Initial residual = 0.00157519, Final residual = 8.69844e-06, No Iterations 130
Solving Saturation Equation
diagonal:  Solving for sw, Initial residual = 0, Final residual = 0, No Iterations 0
Q_inj = 196575
Q_prod = 196575
qw_prod = -0
qo_prod = -196575

Imb = 1


Cmb = 1


NewDeltaT = 11

ExecutionTime = 54.13 s  ClockTime = 67 s

Time = 627

Solving Pressure Equation
DICPCG:  Solving for po, Initial residual = 0.00155097, Final residual = 9.14594e-06, No Iterations 252
Solving Saturation Equation
diagonal:  Solving for sw, Initial residual = 0, Final residual = 0, No Iterations 0
Q_inj = 196575
Q_prod = 196575
qw_prod = -0
qo_prod = -196575

Imb = 1


Cmb = 1


NewDeltaT = 11

ExecutionTime = 55.6 s  ClockTime = 69 s

Time = 638

Solving Pressure Equation
DICPCG:  Solving for po, Initial residual = 0.00152712, Final residual = 9.02195e-06, No Iterations 120
Solving Saturation Equation
diagonal:  Solving for sw, Initial residual = 0, Final residual = 0, No Iterations 0
Q_inj = 196575
Q_prod = 196575
qw_prod = -0
qo_prod = -196575

Imb = 1


Cmb = 1


NewDeltaT = 11

ExecutionTime = 56.32 s  ClockTime = 70 s

Time = 649

Solving Pressure Equation
DICPCG:  Solving for po, Initial residual = 0.00150303, Final residual = 9.43471e-06, No Iterations 123
Solving Saturation Equation
diagonal:  Solving for sw, Initial residual = 0, Final residual = 0, No Iterations 0
Q_inj = 196575
Q_prod = 196575
qw_prod = -0
qo_prod = -196575

Imb = 1


Cmb = 1


NewDeltaT = 11

ExecutionTime = 57.48 s  ClockTime = 71 s

Time = 660

Solving Pressure Equation
DICPCG:  Solving for po, Initial residual = 0.00147317, Final residual = 9.47609e-06, No Iterations 127
Solving Saturation Equation
diagonal:  Solving for sw, Initial residual = 0, Final residual = 0, No Iterations 0
Q_inj = 196575
Q_prod = 196575
qw_prod = -0
qo_prod = -196575

Imb = 1


Cmb = 1


NewDeltaT = 11

ExecutionTime = 58.72 s  ClockTime = 73 s

Time = 671

Solving Pressure Equation
DICPCG:  Solving for po, Initial residual = 0.0014541, Final residual = 8.70565e-06, No Iterations 130
Solving Saturation Equation
diagonal:  Solving for sw, Initial residual = 0, Final residual = 0, No Iterations 0
Q_inj = 196575
Q_prod = 196575
qw_prod = -0
qo_prod = -196575

Imb = 1


Cmb = 1


NewDeltaT = 11

ExecutionTime = 59.58 s  ClockTime = 74 s

Time = 682

Solving Pressure Equation
DICPCG:  Solving for po, Initial residual = 0.00143844, Final residual = 9.28111e-06, No Iterations 130
Solving Saturation Equation
diagonal:  Solving for sw, Initial residual = 0, Final residual = 0, No Iterations 0
Q_inj = 196575
Q_prod = 196575
qw_prod = -0
qo_prod = -196575

Imb = 1


Cmb = 1


NewDeltaT = 11

ExecutionTime = 60.43 s  ClockTime = 75 s

Time = 693

Solving Pressure Equation
DICPCG:  Solving for po, Initial residual = 0.00142276, Final residual = 9.93613e-06, No Iterations 242
Solving Saturation Equation
diagonal:  Solving for sw, Initial residual = 0, Final residual = 0, No Iterations 0
Q_inj = 196575
Q_prod = 196575
qw_prod = -0
qo_prod = -196575

Imb = 1


Cmb = 1


NewDeltaT = 11

ExecutionTime = 61.86 s  ClockTime = 77 s

Time = 704

Solving Pressure Equation
DICPCG:  Solving for po, Initial residual = 0.00140787, Final residual = 9.91936e-06, No Iterations 118
Solving Saturation Equation
diagonal:  Solving for sw, Initial residual = 0, Final residual = 0, No Iterations 0
Q_inj = 196575
Q_prod = 196575
qw_prod = -0
qo_prod = -196575

Imb = 1


Cmb = 1


NewDeltaT = 11

ExecutionTime = 62.54 s  ClockTime = 77 s

Time = 715

Solving Pressure Equation
DICPCG:  Solving for po, Initial residual = 0.00138695, Final residual = 9.68045e-06, No Iterations 121
Solving Saturation Equation
diagonal:  Solving for sw, Initial residual = 0, Final residual = 0, No Iterations 0
Q_inj = 196575
Q_prod = 196575
qw_prod = -0
qo_prod = -196575

Imb = 1


Cmb = 1


NewDeltaT = 11

ExecutionTime = 63.16 s  ClockTime = 78 s

Time = 726

Solving Pressure Equation
DICPCG:  Solving for po, Initial residual = 0.00136376, Final residual = 9.92855e-06, No Iterations 124
Solving Saturation Equation
diagonal:  Solving for sw, Initial residual = 0, Final residual = 0, No Iterations 0
Q_inj = 196575
Q_prod = 196575
qw_prod = -0
qo_prod = -196575

Imb = 1


Cmb = 1


NewDeltaT = 11

ExecutionTime = 63.84 s  ClockTime = 79 s

Time = 737

Solving Pressure Equation
DICPCG:  Solving for po, Initial residual = 0.00134389, Final residual = 9.35044e-06, No Iterations 130
Solving Saturation Equation
diagonal:  Solving for sw, Initial residual = 0, Final residual = 0, No Iterations 0
Q_inj = 196575
Q_prod = 196575
qw_prod = -0
qo_prod = -196575

Imb = 1


Cmb = 1


NewDeltaT = 11

ExecutionTime = 64.89 s  ClockTime = 80 s

Time = 748

Solving Pressure Equation
DICPCG:  Solving for po, Initial residual = 0.00132602, Final residual = 9.38536e-06, No Iterations 252
Solving Saturation Equation
diagonal:  Solving for sw, Initial residual = 0, Final residual = 0, No Iterations 0
Q_inj = 196575
Q_prod = 196575
qw_prod = -0
qo_prod = -196575

Imb = 1


Cmb = 1


NewDeltaT = 11

ExecutionTime = 66 s  ClockTime = 82 s

Time = 759

Solving Pressure Equation
DICPCG:  Solving for po, Initial residual = 0.00131137, Final residual = 9.7716e-06, No Iterations 119
Solving Saturation Equation
diagonal:  Solving for sw, Initial residual = 0, Final residual = 0, No Iterations 0
Q_inj = 196575
Q_prod = 196575
qw_prod = -0
qo_prod = -196575

Imb = 1


Cmb = 1


NewDeltaT = 11

ExecutionTime = 66.64 s  ClockTime = 82 s

Time = 770

Solving Pressure Equation
DICPCG:  Solving for po, Initial residual = 0.00129863, Final residual = 9.22047e-06, No Iterations 122
Solving Saturation Equation
diagonal:  Solving for sw, Initial residual = 0, Final residual = 0, No Iterations 0
Q_inj = 196575
Q_prod = 196575
qw_prod = -0
qo_prod = -196575

Imb = 1


Cmb = 1


NewDeltaT = 11

ExecutionTime = 67.34 s  ClockTime = 84 s

Time = 781

Solving Pressure Equation
DICPCG:  Solving for po, Initial residual = 0.00128677, Final residual = 9.92743e-06, No Iterations 125
Solving Saturation Equation
diagonal:  Solving for sw, Initial residual = 0, Final residual = 0, No Iterations 0
Q_inj = 196575
Q_prod = 196575
qw_prod = -0
qo_prod = -196575

Imb = 1


Cmb = 1


NewDeltaT = 11

ExecutionTime = 68.35 s  ClockTime = 86 s

Time = 792

Solving Pressure Equation
DICPCG:  Solving for po, Initial residual = 0.00127274, Final residual = 9.83077e-06, No Iterations 129
Solving Saturation Equation
diagonal:  Solving for sw, Initial residual = 0, Final residual = 0, No Iterations 0
Q_inj = 196575
Q_prod = 196575
qw_prod = -0
qo_prod = -196575

Imb = 1


Cmb = 1


NewDeltaT = 11

ExecutionTime = 68.91 s  ClockTime = 87 s

Time = 803

Solving Pressure Equation
DICPCG:  Solving for po, Initial residual = 0.00125764, Final residual = 9.89084e-06, No Iterations 251
Solving Saturation Equation
diagonal:  Solving for sw, Initial residual = 0, Final residual = 0, No Iterations 0
Q_inj = 196575
Q_prod = 196575
qw_prod = -0
qo_prod = -196575

Imb = 1


Cmb = 1


NewDeltaT = 11

ExecutionTime = 70.16 s  ClockTime = 90 s

Time = 814

Solving Pressure Equation
DICPCG:  Solving for po, Initial residual = 0.0012386, Final residual = 9.36502e-06, No Iterations 119
Solving Saturation Equation
diagonal:  Solving for sw, Initial residual = 0, Final residual = 0, No Iterations 0
Q_inj = 196575
Q_prod = 196575
qw_prod = -0
qo_prod = -196575

Imb = 1


Cmb = 1


NewDeltaT = 11

ExecutionTime = 70.74 s  ClockTime = 91 s

Time = 825

Solving Pressure Equation
DICPCG:  Solving for po, Initial residual = 0.00122129, Final residual = 9.33527e-06, No Iterations 123
Solving Saturation Equation
diagonal:  Solving for sw, Initial residual = 0, Final residual = 0, No Iterations 0
Q_inj = 196575
Q_prod = 196575
qw_prod = -0
qo_prod = -196575

Imb = 1


Cmb = 1


NewDeltaT = 11

ExecutionTime = 71.76 s  ClockTime = 94 s

Time = 836

Solving Pressure Equation
DICPCG:  Solving for po, Initial residual = 0.00120403, Final residual = 9.52743e-06, No Iterations 127
Solving Saturation Equation
diagonal:  Solving for sw, Initial residual = 0, Final residual = 0, No Iterations 0
Q_inj = 196575
Q_prod = 196575
qw_prod = -0
qo_prod = -196575

Imb = 1


Cmb = 1


NewDeltaT = 11

ExecutionTime = 72.44 s  ClockTime = 95 s

Time = 847

Solving Pressure Equation
DICPCG:  Solving for po, Initial residual = 0.00119429, Final residual = 9.99623e-06, No Iterations 129
Solving Saturation Equation
diagonal:  Solving for sw, Initial residual = 0, Final residual = 0, No Iterations 0
Q_inj = 196575
Q_prod = 196575
qw_prod = -0
qo_prod = -196575

Imb = 1


Cmb = 1


NewDeltaT = 11

ExecutionTime = 73.67 s  ClockTime = 98 s

Time = 858

Solving Pressure Equation
DICPCG:  Solving for po, Initial residual = 0.00118662, Final residual = 9.72633e-06, No Iterations 251
Solving Saturation Equation
diagonal:  Solving for sw, Initial residual = 0, Final residual = 0, No Iterations 0
Q_inj = 196575
Q_prod = 196575
qw_prod = -0
qo_prod = -196575

Imb = 1


Cmb = 1


NewDeltaT = 11

ExecutionTime = 74.48 s  ClockTime = 100 s

Time = 869

Solving Pressure Equation
DICPCG:  Solving for po, Initial residual = 0.00117564, Final residual = 9.77345e-06, No Iterations 119
Solving Saturation Equation
diagonal:  Solving for sw, Initial residual = 0, Final residual = 0, No Iterations 0
Q_inj = 196575
Q_prod = 196575
qw_prod = -0
qo_prod = -196575

Imb = 1


Cmb = 1


NewDeltaT = 11

ExecutionTime = 75.44 s  ClockTime = 102 s

Time = 880

Solving Pressure Equation
DICPCG:  Solving for po, Initial residual = 0.00116563, Final residual = 9.75046e-06, No Iterations 123
Solving Saturation Equation
diagonal:  Solving for sw, Initial residual = 0, Final residual = 0, No Iterations 0
Q_inj = 196575
Q_prod = 196575
qw_prod = -0
qo_prod = -196575

Imb = 1


Cmb = 1


NewDeltaT = 11

ExecutionTime = 75.94 s  ClockTime = 103 s

Time = 891

Solving Pressure Equation
DICPCG:  Solving for po, Initial residual = 0.00115287, Final residual = 9.711e-06, No Iterations 125
Solving Saturation Equation
diagonal:  Solving for sw, Initial residual = 0, Final residual = 0, No Iterations 0
Q_inj = 196575
Q_prod = 196575
qw_prod = -0
qo_prod = -196575

Imb = 1


Cmb = 1


NewDeltaT = 11

ExecutionTime = 76.57 s  ClockTime = 104 s

Time = 902

Solving Pressure Equation
DICPCG:  Solving for po, Initial residual = 0.0011388, Final residual = 9.8057e-06, No Iterations 128
Solving Saturation Equation
diagonal:  Solving for sw, Initial residual = 0, Final residual = 0, No Iterations 0
Q_inj = 196575
Q_prod = 196575
qw_prod = -0
qo_prod = -196575

Imb = 1


Cmb = 1


NewDeltaT = 11

ExecutionTime = 77.7 s  ClockTime = 106 s

Time = 913

Solving Pressure Equation
DICPCG:  Solving for po, Initial residual = 0.001124, Final residual = 9.89127e-06, No Iterations 130
Solving Saturation Equation
diagonal:  Solving for sw, Initial residual = 0, Final residual = 0, No Iterations 0
Q_inj = 196575
Q_prod = 196575
qw_prod = -0
qo_prod = -196575

Imb = 1


Cmb = 1


NewDeltaT = 11

ExecutionTime = 78.37 s  ClockTime = 107 s

Time = 924

Solving Pressure Equation
DICPCG:  Solving for po, Initial residual = 0.00110824, Final residual = 9.67098e-06, No Iterations 251
Solving Saturation Equation
diagonal:  Solving for sw, Initial residual = 0, Final residual = 0, No Iterations 0
Q_inj = 196575
Q_prod = 196575
qw_prod = -0
qo_prod = -196575

Imb = 1


Cmb = 1


NewDeltaT = 11

ExecutionTime = 79.19 s  ClockTime = 108 s

Time = 935

Solving Pressure Equation
DICPCG:  Solving for po, Initial residual = 0.0010982, Final residual = 9.92535e-06, No Iterations 119
Solving Saturation Equation
diagonal:  Solving for sw, Initial residual = 0, Final residual = 0, No Iterations 0
Q_inj = 196575
Q_prod = 196575
qw_prod = -0
qo_prod = -196575

Imb = 1


Cmb = 1


NewDeltaT = 11

ExecutionTime = 80.12 s  ClockTime = 110 s

Time = 946

Solving Pressure Equation
DICPCG:  Solving for po, Initial residual = 0.00108997, Final residual = 9.94581e-06, No Iterations 122
Solving Saturation Equation
diagonal:  Solving for sw, Initial residual = 0, Final residual = 0, No Iterations 0
Q_inj = 196575
Q_prod = 196575
qw_prod = -0
qo_prod = -196575

Imb = 1


Cmb = 1


NewDeltaT = 11

ExecutionTime = 80.73 s  ClockTime = 112 s

Time = 957

Solving Pressure Equation
DICPCG:  Solving for po, Initial residual = 0.00108304, Final residual = 9.92007e-06, No Iterations 124
Solving Saturation Equation
diagonal:  Solving for sw, Initial residual = 0, Final residual = 0, No Iterations 0
Q_inj = 196575
Q_prod = 196575
qw_prod = -0
qo_prod = -196575

Imb = 1


Cmb = 1


NewDeltaT = 11

ExecutionTime = 81.62 s  ClockTime = 113 s

Time = 968

Solving Pressure Equation
DICPCG:  Solving for po, Initial residual = 0.00107523, Final residual = 9.5464e-06, No Iterations 129
Solving Saturation Equation
diagonal:  Solving for sw, Initial residual = 0, Final residual = 0, No Iterations 0
Q_inj = 196575
Q_prod = 196575
qw_prod = -0
qo_prod = -196575

Imb = 1


Cmb = 1


NewDeltaT = 11

ExecutionTime = 83.03 s  ClockTime = 115 s

Time = 979

Solving Pressure Equation
DICPCG:  Solving for po, Initial residual = 0.00106606, Final residual = 9.90449e-06, No Iterations 250
Solving Saturation Equation
diagonal:  Solving for sw, Initial residual = 0, Final residual = 0, No Iterations 0
Q_inj = 196575
Q_prod = 196575
qw_prod = -0
qo_prod = -196575

Imb = 1


Cmb = 1


NewDeltaT = 11

ExecutionTime = 83.95 s  ClockTime = 116 s

Time = 990

Solving Pressure Equation
DICPCG:  Solving for po, Initial residual = 0.00105714, Final residual = 9.94782e-06, No Iterations 118
Solving Saturation Equation
diagonal:  Solving for sw, Initial residual = 0, Final residual = 0, No Iterations 0
Q_inj = 196575
Q_prod = 196575
qw_prod = -0
qo_prod = -196575

Imb = 1


Cmb = 1


NewDeltaT = 11

ExecutionTime = 84.48 s  ClockTime = 116 s

Time = 1001

Solving Pressure Equation
DICPCG:  Solving for po, Initial residual = 0.00104523, Final residual = 9.09308e-06, No Iterations 123
Solving Saturation Equation
diagonal:  Solving for sw, Initial residual = 0, Final residual = 0, No Iterations 0
Q_inj = 196575
Q_prod = 196575
qw_prod = -0
qo_prod = -196575

Imb = 1


Cmb = 1


NewDeltaT = 11

ExecutionTime = 85.58 s  ClockTime = 118 s

Time = 1012

Solving Pressure Equation
DICPCG:  Solving for po, Initial residual = 0.00103224, Final residual = 9.59042e-06, No Iterations 123
Solving Saturation Equation
diagonal:  Solving for sw, Initial residual = 0, Final residual = 0, No Iterations 0
Q_inj = 196575
Q_prod = 196575
qw_prod = -0
qo_prod = -196575

Imb = 1


Cmb = 1


NewDeltaT = 11

ExecutionTime = 86.28 s  ClockTime = 119 s

Time = 1023

Solving Pressure Equation
DICPCG:  Solving for po, Initial residual = 0.00101989, Final residual = 9.9104e-06, No Iterations 129
Solving Saturation Equation
diagonal:  Solving for sw, Initial residual = 0, Final residual = 0, No Iterations 0
Q_inj = 196575
Q_prod = 196575
qw_prod = -0
qo_prod = -196575

Imb = 1


Cmb = 1


NewDeltaT = 11

ExecutionTime = 86.96 s  ClockTime = 120 s

Time = 1034

Solving Pressure Equation
DICPCG:  Solving for po, Initial residual = 0.00100976, Final residual = 9.773e-06, No Iterations 251
Solving Saturation Equation
diagonal:  Solving for sw, Initial residual = 0, Final residual = 0, No Iterations 0
Q_inj = 196575
Q_prod = 196575
qw_prod = -0
qo_prod = -196575

Imb = 1


Cmb = 1


NewDeltaT = 11

ExecutionTime = 88.18 s  ClockTime = 122 s

Time = 1045

Solving Pressure Equation
DICPCG:  Solving for po, Initial residual = 0.0010024, Final residual = 9.41198e-06, No Iterations 120
Solving Saturation Equation
diagonal:  Solving for sw, Initial residual = 0, Final residual = 0, No Iterations 0
Q_inj = 196575
Q_prod = 196575
qw_prod = -0
qo_prod = -196575

Imb = 1


Cmb = 1


NewDeltaT = 11

ExecutionTime = 89.37 s  ClockTime = 123 s

Time = 1056

Solving Pressure Equation
DICPCG:  Solving for po, Initial residual = 0.000996737, Final residual = 9.48461e-06, No Iterations 123
Solving Saturation Equation
diagonal:  Solving for sw, Initial residual = 0, Final residual = 0, No Iterations 0
Q_inj = 196575
Q_prod = 196575
qw_prod = -0
qo_prod = -196575

Imb = 1


Cmb = 1


NewDeltaT = 11

ExecutionTime = 90.19 s  ClockTime = 124 s

Time = 1067

Solving Pressure Equation
DICPCG:  Solving for po, Initial residual = 0.000991529, Final residual = 9.84798e-06, No Iterations 124
Solving Saturation Equation
diagonal:  Solving for sw, Initial residual = 0, Final residual = 0, No Iterations 0
Q_inj = 196575
Q_prod = 196575
qw_prod = -0
qo_prod = -196575

Imb = 1


Cmb = 1


NewDeltaT = 11

ExecutionTime = 90.87 s  ClockTime = 125 s

Time = 1078

Solving Pressure Equation
DICPCG:  Solving for po, Initial residual = 0.000985474, Final residual = 9.86141e-06, No Iterations 129
Solving Saturation Equation
diagonal:  Solving for sw, Initial residual = 0, Final residual = 0, No Iterations 0
Q_inj = 196575
Q_prod = 196575
qw_prod = -0
qo_prod = -196575

Imb = 1


Cmb = 1


NewDeltaT = 11

ExecutionTime = 91.73 s  ClockTime = 126 s

Time = 1089

Solving Pressure Equation
DICPCG:  Solving for po, Initial residual = 0.000977024, Final residual = 8.87456e-06, No Iterations 251
Solving Saturation Equation
diagonal:  Solving for sw, Initial residual = 0, Final residual = 0, No Iterations 0
Q_inj = 196575
Q_prod = 196575
qw_prod = -0
qo_prod = -196575

Imb = 1


Cmb = 1


NewDeltaT = 11

ExecutionTime = 93.18 s  ClockTime = 128 s

Time = 1100

Solving Pressure Equation
DICPCG:  Solving for po, Initial residual = 0.000967192, Final residual = 9.89458e-06, No Iterations 117
Solving Saturation Equation
diagonal:  Solving for sw, Initial residual = 0, Final residual = 0, No Iterations 0
Q_inj = 196575
Q_prod = 196575
qw_prod = -0
qo_prod = -196575

Imb = 1


Cmb = 1


NewDeltaT = 11

ExecutionTime = 93.89 s  ClockTime = 128 s

Time = 1111

Solving Pressure Equation
DICPCG:  Solving for po, Initial residual = 0.000958611, Final residual = 9.32729e-06, No Iterations 123
Solving Saturation Equation
diagonal:  Solving for sw, Initial residual = 0, Final residual = 0, No Iterations 0
Q_inj = 196575
Q_prod = 196575
qw_prod = -0
qo_prod = -196575

Imb = 1


Cmb = 1


NewDeltaT = 11

ExecutionTime = 94.51 s  ClockTime = 129 s

Time = 1122

Solving Pressure Equation
DICPCG:  Solving for po, Initial residual = 0.000948264, Final residual = 9.19538e-06, No Iterations 127
Solving Saturation Equation
diagonal:  Solving for sw, Initial residual = 0, Final residual = 0, No Iterations 0
Q_inj = 196575
Q_prod = 196575
qw_prod = -0
qo_prod = -196575

Imb = 1


Cmb = 1


NewDeltaT = 11

ExecutionTime = 95.67 s  ClockTime = 131 s

Time = 1133

Solving Pressure Equation
DICPCG:  Solving for po, Initial residual = 0.000937709, Final residual = 9.57247e-06, No Iterations 129
Solving Saturation Equation
diagonal:  Solving for sw, Initial residual = 0, Final residual = 0, No Iterations 0
Q_inj = 196575
Q_prod = 196575
qw_prod = -0
qo_prod = -196575

Imb = 1


Cmb = 1


NewDeltaT = 11

ExecutionTime = 96.39 s  ClockTime = 132 s

Time = 1144

Solving Pressure Equation
DICPCG:  Solving for po, Initial residual = 0.000930296, Final residual = 8.10238e-06, No Iterations 251
Solving Saturation Equation
diagonal:  Solving for sw, Initial residual = 0, Final residual = 0, No Iterations 0
Q_inj = 196575
Q_prod = 196575
qw_prod = -0
qo_prod = -196575

Imb = 1


Cmb = 1


NewDeltaT = 11

ExecutionTime = 97.23 s  ClockTime = 133 s

Time = 1155

Solving Pressure Equation
DICPCG:  Solving for po, Initial residual = 0.000923067, Final residual = 9.43965e-06, No Iterations 120
Solving Saturation Equation
diagonal:  Solving for sw, Initial residual = 0, Final residual = 0, No Iterations 0
Q_inj = 196575
Q_prod = 196575
qw_prod = -0
qo_prod = -196575

Imb = 1


Cmb = 1


NewDeltaT = 11

ExecutionTime = 97.79 s  ClockTime = 133 s

Time = 1166

Solving Pressure Equation
DICPCG:  Solving for po, Initial residual = 0.000919421, Final residual = 9.93245e-06, No Iterations 123
Solving Saturation Equation
diagonal:  Solving for sw, Initial residual = 0, Final residual = 0, No Iterations 0
Q_inj = 196575
Q_prod = 196575
qw_prod = -0
qo_prod = -196575

Imb = 1


Cmb = 1


NewDeltaT = 11

ExecutionTime = 99.06 s  ClockTime = 135 s

Time = 1177

Solving Pressure Equation
DICPCG:  Solving for po, Initial residual = 0.000914405, Final residual = 9.2579e-06, No Iterations 127
Solving Saturation Equation
diagonal:  Solving for sw, Initial residual = 0, Final residual = 0, No Iterations 0
Q_inj = 196575
Q_prod = 196575
qw_prod = -0
qo_prod = -196575

Imb = 1


Cmb = 1


NewDeltaT = 11

ExecutionTime = 99.93 s  ClockTime = 136 s

Time = 1188

Solving Pressure Equation
DICPCG:  Solving for po, Initial residual = 0.000909833, Final residual = 9.30339e-06, No Iterations 129
Solving Saturation Equation
diagonal:  Solving for sw, Initial residual = 0, Final residual = 0, No Iterations 0
Q_inj = 196575
Q_prod = 196575
qw_prod = -0
qo_prod = -196575

Imb = 1


Cmb = 1


NewDeltaT = 11

ExecutionTime = 100.52 s  ClockTime = 137 s

Time = 1199

Solving Pressure Equation
DICPCG:  Solving for po, Initial residual = 0.000903895, Final residual = 9.21659e-06, No Iterations 251
Solving Saturation Equation
diagonal:  Solving for sw, Initial residual = 0, Final residual = 0, No Iterations 0
Q_inj = 196575
Q_prod = 196575
qw_prod = -0
qo_prod = -196575

Imb = 1


Cmb = 1


NewDeltaT = 11

ExecutionTime = 101.22 s  ClockTime = 137 s

Time = 1210

Solving Pressure Equation
DICPCG:  Solving for po, Initial residual = 0.000895038, Final residual = 9.93541e-06, No Iterations 119
Solving Saturation Equation
diagonal:  Solving for sw, Initial residual = 0, Final residual = 0, No Iterations 0
Q_inj = 196575
Q_prod = 196575
qw_prod = -0
qo_prod = -196575

Imb = 1


Cmb = 1


NewDeltaT = 11

ExecutionTime = 102.39 s  ClockTime = 139 s

Time = 1221

Solving Pressure Equation
DICPCG:  Solving for po, Initial residual = 0.000888503, Final residual = 9.61457e-06, No Iterations 123
Solving Saturation Equation
diagonal:  Solving for sw, Initial residual = 0, Final residual = 0, No Iterations 0
Q_inj = 196575
Q_prod = 196575
qw_prod = -0
qo_prod = -196575

Imb = 1


Cmb = 1


NewDeltaT = 11

ExecutionTime = 103.29 s  ClockTime = 140 s

Time = 1232

Solving Pressure Equation
DICPCG:  Solving for po, Initial residual = 0.000880518, Final residual = 9.20594e-06, No Iterations 126
Solving Saturation Equation
diagonal:  Solving for sw, Initial residual = 0, Final residual = 0, No Iterations 0
Q_inj = 196575
Q_prod = 196575
qw_prod = -0
qo_prod = -196575

Imb = 1


Cmb = 1


NewDeltaT = 11

ExecutionTime = 103.8 s  ClockTime = 141 s

Time = 1243

Solving Pressure Equation
DICPCG:  Solving for po, Initial residual = 0.000871435, Final residual = 9.91271e-06, No Iterations 130
Solving Saturation Equation
diagonal:  Solving for sw, Initial residual = 0, Final residual = 0, No Iterations 0
Q_inj = 196575
Q_prod = 196575
qw_prod = -0
qo_prod = -196575

Imb = 1


Cmb = 1


NewDeltaT = 11

ExecutionTime = 104.53 s  ClockTime = 141 s

Time = 1254

Solving Pressure Equation
DICPCG:  Solving for po, Initial residual = 0.000864315, Final residual = 9.08333e-06, No Iterations 251
Solving Saturation Equation
diagonal:  Solving for sw, Initial residual = 0, Final residual = 0, No Iterations 0
Q_inj = 196575
Q_prod = 196575
qw_prod = -0
qo_prod = -196575

Imb = 1


Cmb = 1


NewDeltaT = 11

ExecutionTime = 105.65 s  ClockTime = 143 s

Time = 1265

Solving Pressure Equation
DICPCG:  Solving for po, Initial residual = 0.000858008, Final residual = 9.57957e-06, No Iterations 120
Solving Saturation Equation
diagonal:  Solving for sw, Initial residual = 0, Final residual = 0, No Iterations 0
Q_inj = 196575
Q_prod = 196575
qw_prod = -0
qo_prod = -196575

Imb = 1


Cmb = 1


NewDeltaT = 11

ExecutionTime = 106.51 s  ClockTime = 144 s

Time = 1276

Solving Pressure Equation
DICPCG:  Solving for po, Initial residual = 0.000854682, Final residual = 9.45802e-06, No Iterations 123
Solving Saturation Equation
diagonal:  Solving for sw, Initial residual = 0, Final residual = 0, No Iterations 0
Q_inj = 196575
Q_prod = 196575
qw_prod = -0
qo_prod = -196575

Imb = 1


Cmb = 1


NewDeltaT = 11

ExecutionTime = 107.31 s  ClockTime = 145 s

Time = 1287

Solving Pressure Equation
DICPCG:  Solving for po, Initial residual = 0.000849894, Final residual = 9.90486e-06, No Iterations 124
Solving Saturation Equation
diagonal:  Solving for sw, Initial residual = 0, Final residual = 0, No Iterations 0
Q_inj = 196575
Q_prod = 196575
qw_prod = -0
qo_prod = -196575

Imb = 1


Cmb = 1


NewDeltaT = 11

ExecutionTime = 108.09 s  ClockTime = 146 s

Time = 1298

Solving Pressure Equation
DICPCG:  Solving for po, Initial residual = 0.000846149, Final residual = 9.90175e-06, No Iterations 129
Solving Saturation Equation
diagonal:  Solving for sw, Initial residual = 0, Final residual = 0, No Iterations 0
Q_inj = 196575
Q_prod = 196575
qw_prod = -0
qo_prod = -196575

Imb = 1


Cmb = 1


NewDeltaT = 11

ExecutionTime = 109.04 s  ClockTime = 147 s

Time = 1309

Solving Pressure Equation
DICPCG:  Solving for po, Initial residual = 0.000841083, Final residual = 9.39634e-06, No Iterations 251
Solving Saturation Equation
diagonal:  Solving for sw, Initial residual = 0, Final residual = 0, No Iterations 0
Q_inj = 196575
Q_prod = 196575
qw_prod = -0
qo_prod = -196575

Imb = 1


Cmb = 1


NewDeltaT = 11

ExecutionTime = 110.76 s  ClockTime = 149 s

Time = 1320

Solving Pressure Equation
DICPCG:  Solving for po, Initial residual = 0.000835305, Final residual = 9.30392e-06, No Iterations 120
Solving Saturation Equation
diagonal:  Solving for sw, Initial residual = 0, Final residual = 0, No Iterations 0
Q_inj = 196575
Q_prod = 196575
qw_prod = -0
qo_prod = -196575

Imb = 1


Cmb = 1


NewDeltaT = 11

ExecutionTime = 111.48 s  ClockTime = 150 s

Time = 1331

Solving Pressure Equation
DICPCG:  Solving for po, Initial residual = 0.000829859, Final residual = 9.78292e-06, No Iterations 123
Solving Saturation Equation
diagonal:  Solving for sw, Initial residual = 0, Final residual = 0, No Iterations 0
Q_inj = 196575
Q_prod = 196575
qw_prod = -0
qo_prod = -196575

Imb = 1


Cmb = 1


NewDeltaT = 11

ExecutionTime = 112.86 s  ClockTime = 152 s

Time = 1342

Solving Pressure Equation
DICPCG:  Solving for po, Initial residual = 0.000825111, Final residual = 9.63111e-06, No Iterations 127
Solving Saturation Equation
diagonal:  Solving for sw, Initial residual = 0, Final residual = 0, No Iterations 0
Q_inj = 196575
Q_prod = 196575
qw_prod = -0
qo_prod = -196575

Imb = 1


Cmb = 1


NewDeltaT = 11

ExecutionTime = 113.82 s  ClockTime = 153 s

Time = 1353

Solving Pressure Equation
DICPCG:  Solving for po, Initial residual = 0.000818531, Final residual = 9.36866e-06, No Iterations 251
Solving Saturation Equation
diagonal:  Solving for sw, Initial residual = 0, Final residual = 0, No Iterations 0
Q_inj = 196575
Q_prod = 196575
qw_prod = -0
qo_prod = -196575

Imb = 1


Cmb = 1


NewDeltaT = 11

ExecutionTime = 114.72 s  ClockTime = 154 s

Time = 1364

Solving Pressure Equation
DICPCG:  Solving for po, Initial residual = 0.000809831, Final residual = 9.69909e-06, No Iterations 119
Solving Saturation Equation
diagonal:  Solving for sw, Initial residual = 0, Final residual = 0, No Iterations 0
Q_inj = 196575
Q_prod = 196575
qw_prod = -0
qo_prod = -196575

Imb = 1


Cmb = 1


NewDeltaT = 11

ExecutionTime = 115.77 s  ClockTime = 155 s

Time = 1375

Solving Pressure Equation
DICPCG:  Solving for po, Initial residual = 0.00080225, Final residual = 9.65507e-06, No Iterations 124
Solving Saturation Equation
diagonal:  Solving for sw, Initial residual = 0, Final residual = 0, No Iterations 0
Q_inj = 196575
Q_prod = 196575
qw_prod = -0
qo_prod = -196575

Imb = 1


Cmb = 1


NewDeltaT = 11

ExecutionTime = 117.25 s  ClockTime = 157 s

Time = 1386

Solving Pressure Equation
DICPCG:  Solving for po, Initial residual = 0.000797817, Final residual = 9.43107e-06, No Iterations 127
Solving Saturation Equation
diagonal:  Solving for sw, Initial residual = 0, Final residual = 0, No Iterations 0
Q_inj = 196575
Q_prod = 196575
qw_prod = -0
qo_prod = -196575

Imb = 1


Cmb = 1


NewDeltaT = 11

ExecutionTime = 117.89 s  ClockTime = 158 s

Time = 1397

Solving Pressure Equation
DICPCG:  Solving for po, Initial residual = 0.000795213, Final residual = 9.93854e-06, No Iterations 130
Solving Saturation Equation
diagonal:  Solving for sw, Initial residual = 0, Final residual = 0, No Iterations 0
Q_inj = 196575
Q_prod = 196575
qw_prod = -0
qo_prod = -196575

Imb = 1


Cmb = 1


NewDeltaT = 11

ExecutionTime = 118.56 s  ClockTime = 158 s

Time = 1408

Solving Pressure Equation
DICPCG:  Solving for po, Initial residual = 0.000792128, Final residual = 9.48547e-06, No Iterations 251
Solving Saturation Equation
diagonal:  Solving for sw, Initial residual = 0, Final residual = 0, No Iterations 0
Q_inj = 196575
Q_prod = 196575
qw_prod = -0
qo_prod = -196575

Imb = 1


Cmb = 1


NewDeltaT = 11

ExecutionTime = 120.3 s  ClockTime = 161 s

Time = 1419

Solving Pressure Equation
DICPCG:  Solving for po, Initial residual = 0.0007866, Final residual = 9.24397e-06, No Iterations 120
Solving Saturation Equation
diagonal:  Solving for sw, Initial residual = 0, Final residual = 0, No Iterations 0
Q_inj = 196575
Q_prod = 196575
qw_prod = -0
qo_prod = -196575

Imb = 1


Cmb = 1


NewDeltaT = 11

ExecutionTime = 121.2 s  ClockTime = 162 s

Time = 1430

Solving Pressure Equation
DICPCG:  Solving for po, Initial residual = 0.000782221, Final residual = 9.65045e-06, No Iterations 123
Solving Saturation Equation
diagonal:  Solving for sw, Initial residual = 0, Final residual = 0, No Iterations 0
Q_inj = 196575
Q_prod = 196575
qw_prod = -0
qo_prod = -196575

Imb = 1


Cmb = 1


NewDeltaT = 11

ExecutionTime = 121.98 s  ClockTime = 162 s

Time = 1441

Solving Pressure Equation
DICPCG:  Solving for po, Initial residual = 0.000779953, Final residual = 8.87769e-06, No Iterations 127
Solving Saturation Equation
diagonal:  Solving for sw, Initial residual = 0, Final residual = 0, No Iterations 0
Q_inj = 196575
Q_prod = 196575
qw_prod = -0
qo_prod = -196575

Imb = 1


Cmb = 1


NewDeltaT = 11

ExecutionTime = 123.16 s  ClockTime = 164 s

Time = 1452

Solving Pressure Equation
DICPCG:  Solving for po, Initial residual = 0.000775805, Final residual = 9.4242e-06, No Iterations 251
Solving Saturation Equation
diagonal:  Solving for sw, Initial residual = 0, Final residual = 0, No Iterations 0
Q_inj = 196575
Q_prod = 196575
qw_prod = -0
qo_prod = -196575

Imb = 1


Cmb = 1


NewDeltaT = 11

ExecutionTime = 124.58 s  ClockTime = 166 s

Time = 1463

Solving Pressure Equation
DICPCG:  Solving for po, Initial residual = 0.000772685, Final residual = 9.73811e-06, No Iterations 120
Solving Saturation Equation
diagonal:  Solving for sw, Initial residual = 0, Final residual = 0, No Iterations 0
Q_inj = 196575
Q_prod = 196575
qw_prod = -0
qo_prod = -196575

Imb = 1


Cmb = 1


NewDeltaT = 11

ExecutionTime = 125.23 s  ClockTime = 166 s

Time = 1474

Solving Pressure Equation
DICPCG:  Solving for po, Initial residual = 0.00076731, Final residual = 9.49421e-06, No Iterations 123
Solving Saturation Equation
diagonal:  Solving for sw, Initial residual = 0, Final residual = 0, No Iterations 0
Q_inj = 196575
Q_prod = 196575
qw_prod = -0
qo_prod = -196575

Imb = 1


Cmb = 1


NewDeltaT = 11

ExecutionTime = 126 s  ClockTime = 167 s

Time = 1485

Solving Pressure Equation
DICPCG:  Solving for po, Initial residual = 0.00076135, Final residual = 8.87986e-06, No Iterations 127
Solving Saturation Equation
diagonal:  Solving for sw, Initial residual = 0, Final residual = 0, No Iterations 0
Q_inj = 196575
Q_prod = 196575
qw_prod = -0
qo_prod = -196575

Imb = 1


Cmb = 1


NewDeltaT = 11

ExecutionTime = 127.23 s  ClockTime = 169 s

Time = 1496

Solving Pressure Equation
DICPCG:  Solving for po, Initial residual = 0.000753419, Final residual = 8.59489e-06, No Iterations 251
Solving Saturation Equation
diagonal:  Solving for sw, Initial residual = 0, Final residual = 0, No Iterations 0
Q_inj = 196575
Q_prod = 196575
qw_prod = -0
qo_prod = -196575

Imb = 1


Cmb = 1


NewDeltaT = 11

ExecutionTime = 128.47 s  ClockTime = 170 s

Time = 1507

Solving Pressure Equation
DICPCG:  Solving for po, Initial residual = 0.000746718, Final residual = 9.80342e-06, No Iterations 120
Solving Saturation Equation
diagonal:  Solving for sw, Initial residual = 0, Final residual = 0, No Iterations 0
Q_inj = 196575
Q_prod = 196575
qw_prod = -0
qo_prod = -196575

Imb = 1


Cmb = 1


NewDeltaT = 11

ExecutionTime = 129.14 s  ClockTime = 171 s

Time = 1518

Solving Pressure Equation
DICPCG:  Solving for po, Initial residual = 0.000742556, Final residual = 8.86865e-06, No Iterations 123
Solving Saturation Equation
diagonal:  Solving for sw, Initial residual = 0, Final residual = 0, No Iterations 0
Q_inj = 196575
Q_prod = 196575
qw_prod = -0
qo_prod = -196575

Imb = 1


Cmb = 1


NewDeltaT = 11

ExecutionTime = 130.29 s  ClockTime = 173 s

Time = 1529

Solving Pressure Equation
DICPCG:  Solving for po, Initial residual = 0.000738894, Final residual = 9.7935e-06, No Iterations 128
Solving Saturation Equation
diagonal:  Solving for sw, Initial residual = 0, Final residual = 0, No Iterations 0
Q_inj = 196575
Q_prod = 196575
qw_prod = -0
qo_prod = -196575

Imb = 1


Cmb = 1


NewDeltaT = 11

ExecutionTime = 131.27 s  ClockTime = 174 s

Time = 1540

Solving Pressure Equation
DICPCG:  Solving for po, Initial residual = 0.00073744, Final residual = 9.92804e-06, No Iterations 251
Solving Saturation Equation
diagonal:  Solving for sw, Initial residual = 0, Final residual = 0, No Iterations 0
Q_inj = 196575
Q_prod = 196575
qw_prod = -0
qo_prod = -196575

Imb = 1


Cmb = 1


NewDeltaT = 11

ExecutionTime = 132.03 s  ClockTime = 175 s

Time = 1551

Solving Pressure Equation
DICPCG:  Solving for po, Initial residual = 0.00073563, Final residual = 9.68526e-06, No Iterations 121
Solving Saturation Equation
diagonal:  Solving for sw, Initial residual = 0, Final residual = 0, No Iterations 0
Q_inj = 196575
Q_prod = 196575
qw_prod = -0
qo_prod = -196575

Imb = 1


Cmb = 1


NewDeltaT = 11

ExecutionTime = 132.62 s  ClockTime = 175 s

Time = 1562

Solving Pressure Equation
DICPCG:  Solving for po, Initial residual = 0.000733133, Final residual = 9.09867e-06, No Iterations 123
Solving Saturation Equation
diagonal:  Solving for sw, Initial residual = 0, Final residual = 0, No Iterations 0
Q_inj = 196575
Q_prod = 196575
qw_prod = -0
qo_prod = -196575

Imb = 1


Cmb = 1


NewDeltaT = 11

ExecutionTime = 133.95 s  ClockTime = 177 s

Time = 1573

Solving Pressure Equation
DICPCG:  Solving for po, Initial residual = 0.000729789, Final residual = 9.07169e-06, No Iterations 128
Solving Saturation Equation
diagonal:  Solving for sw, Initial residual = 0, Final residual = 0, No Iterations 0
Q_inj = 196575
Q_prod = 196575
qw_prod = -0
qo_prod = -196575

Imb = 1


Cmb = 1


NewDeltaT = 11

ExecutionTime = 134.81 s  ClockTime = 178 s

Time = 1584

Solving Pressure Equation
DICPCG:  Solving for po, Initial residual = 0.000726534, Final residual = 9.28015e-06, No Iterations 252
Solving Saturation Equation
diagonal:  Solving for sw, Initial residual = 0, Final residual = 0, No Iterations 0
Q_inj = 196575
Q_prod = 196575
qw_prod = -0
qo_prod = -196575

Imb = 1


Cmb = 1


NewDeltaT = 11

ExecutionTime = 135.78 s  ClockTime = 179 s

Time = 1595

Solving Pressure Equation
DICPCG:  Solving for po, Initial residual = 0.000723846, Final residual = 9.85687e-06, No Iterations 120
Solving Saturation Equation
diagonal:  Solving for sw, Initial residual = 0, Final residual = 0, No Iterations 0
Q_inj = 196575
Q_prod = 196575
qw_prod = -0
qo_prod = -196575

Imb = 1


Cmb = 1


NewDeltaT = 11

ExecutionTime = 136.62 s  ClockTime = 180 s

Time = 1606

Solving Pressure Equation
DICPCG:  Solving for po, Initial residual = 0.000719347, Final residual = 9.59144e-06, No Iterations 123
Solving Saturation Equation
diagonal:  Solving for sw, Initial residual = 0, Final residual = 0, No Iterations 0
Q_inj = 196575
Q_prod = 196575
qw_prod = -0
qo_prod = -196575

Imb = 1


Cmb = 1


NewDeltaT = 11

ExecutionTime = 138.24 s  ClockTime = 182 s

Time = 1617

Solving Pressure Equation
DICPCG:  Solving for po, Initial residual = 0.000714678, Final residual = 9.60882e-06, No Iterations 129
Solving Saturation Equation
diagonal:  Solving for sw, Initial residual = 0, Final residual = 0, No Iterations 0
Q_inj = 196575
Q_prod = 196575
qw_prod = -0
qo_prod = -196575

Imb = 1


Cmb = 1


NewDeltaT = 11

ExecutionTime = 139.18 s  ClockTime = 183 s

Time = 1628

Solving Pressure Equation
DICPCG:  Solving for po, Initial residual = 0.00070862, Final residual = 9.78747e-06, No Iterations 252
Solving Saturation Equation
diagonal:  Solving for sw, Initial residual = 0, Final residual = 0, No Iterations 0
Q_inj = 196575
Q_prod = 196575
qw_prod = -0
qo_prod = -196575

Imb = 1


Cmb = 1


NewDeltaT = 11

ExecutionTime = 140.62 s  ClockTime = 185 s

Time = 1639

Solving Pressure Equation
DICPCG:  Solving for po, Initial residual = 0.000702099, Final residual = 9.26394e-06, No Iterations 121
Solving Saturation Equation
diagonal:  Solving for sw, Initial residual = 0, Final residual = 0, No Iterations 0
Q_inj = 196575
Q_prod = 196575
qw_prod = -0
qo_prod = -196575

Imb = 1


Cmb = 1


NewDeltaT = 11

ExecutionTime = 141.92 s  ClockTime = 187 s

Time = 1650

Solving Pressure Equation
DICPCG:  Solving for po, Initial residual = 0.000696232, Final residual = 9.69465e-06, No Iterations 123
Solving Saturation Equation
diagonal:  Solving for sw, Initial residual = 0, Final residual = 0, No Iterations 0
Q_inj = 196575
Q_prod = 196575
qw_prod = -0
qo_prod = -196575

Imb = 1


Cmb = 1


NewDeltaT = 11

ExecutionTime = 142.78 s  ClockTime = 188 s

Time = 1661

Solving Pressure Equation
DICPCG:  Solving for po, Initial residual = 0.000693648, Final residual = 9.5095e-06, No Iterations 128
Solving Saturation Equation
diagonal:  Solving for sw, Initial residual = 0, Final residual = 0, No Iterations 0
Q_inj = 196575
Q_prod = 196575
qw_prod = -0
qo_prod = -196575

Imb = 1


Cmb = 1


NewDeltaT = 11

ExecutionTime = 144.17 s  ClockTime = 190 s

Time = 1672

Solving Pressure Equation
DICPCG:  Solving for po, Initial residual = 0.000692062, Final residual = 9.41034e-06, No Iterations 250
Solving Saturation Equation
diagonal:  Solving for sw, Initial residual = 0, Final residual = 0, No Iterations 0
Q_inj = 196575
Q_prod = 196575
qw_prod = -0
qo_prod = -196575

Imb = 1


Cmb = 1


NewDeltaT = 11

ExecutionTime = 145.26 s  ClockTime = 191 s

Time = 1683

Solving Pressure Equation
DICPCG:  Solving for po, Initial residual = 0.000690828, Final residual = 9.6101e-06, No Iterations 120
Solving Saturation Equation
diagonal:  Solving for sw, Initial residual = 0, Final residual = 0, No Iterations 0
Q_inj = 196575
Q_prod = 196575
qw_prod = -0
qo_prod = -196575

Imb = 1


Cmb = 1


NewDeltaT = 11

ExecutionTime = 146.05 s  ClockTime = 192 s

Time = 1694

Solving Pressure Equation
DICPCG:  Solving for po, Initial residual = 0.000688959, Final residual = 9.27586e-06, No Iterations 126
Solving Saturation Equation
diagonal:  Solving for sw, Initial residual = 0, Final residual = 0, No Iterations 0
Q_inj = 196575
Q_prod = 196575
qw_prod = -0
qo_prod = -196575

Imb = 1


Cmb = 1


NewDeltaT = 11

ExecutionTime = 147.25 s  ClockTime = 193 s

Time = 1705

Solving Pressure Equation
DICPCG:  Solving for po, Initial residual = 0.000687055, Final residual = 9.92735e-06, No Iterations 129
Solving Saturation Equation
diagonal:  Solving for sw, Initial residual = 0, Final residual = 0, No Iterations 0
Q_inj = 196575
Q_prod = 196575
qw_prod = -0
qo_prod = -196575

Imb = 1


Cmb = 1


NewDeltaT = 11

ExecutionTime = 148.31 s  ClockTime = 195 s

Time = 1716

Solving Pressure Equation
DICPCG:  Solving for po, Initial residual = 0.000684601, Final residual = 9.73784e-06, No Iterations 253
Solving Saturation Equation
diagonal:  Solving for sw, Initial residual = 0, Final residual = 0, No Iterations 0
Q_inj = 196575
Q_prod = 196575
qw_prod = -0
qo_prod = -196575

Imb = 1


Cmb = 1


NewDeltaT = 11

ExecutionTime = 149.17 s  ClockTime = 196 s

Time = 1727

Solving Pressure Equation
DICPCG:  Solving for po, Initial residual = 0.000682047, Final residual = 9.03017e-06, No Iterations 121
Solving Saturation Equation
diagonal:  Solving for sw, Initial residual = 0, Final residual = 0, No Iterations 0
Q_inj = 196575
Q_prod = 196575
qw_prod = -0
qo_prod = -196575

Imb = 1


Cmb = 1


NewDeltaT = 11

ExecutionTime = 149.8 s  ClockTime = 196 s

Time = 1738

Solving Pressure Equation
DICPCG:  Solving for po, Initial residual = 0.000679325, Final residual = 9.00551e-06, No Iterations 127
Solving Saturation Equation
diagonal:  Solving for sw, Initial residual = 0, Final residual = 0, No Iterations 0
Q_inj = 196575
Q_prod = 196575
qw_prod = -0
qo_prod = -196575

Imb = 1


Cmb = 1


NewDeltaT = 11

ExecutionTime = 151.26 s  ClockTime = 198 s

Time = 1749

Solving Pressure Equation
DICPCG:  Solving for po, Initial residual = 0.000676498, Final residual = 9.70483e-06, No Iterations 252
Solving Saturation Equation
diagonal:  Solving for sw, Initial residual = 0, Final residual = 0, No Iterations 0
Q_inj = 196575
Q_prod = 196575
qw_prod = -0
qo_prod = -196575

Imb = 1


Cmb = 1


NewDeltaT = 11

ExecutionTime = 152.36 s  ClockTime = 200 s

Time = 1760

Solving Pressure Equation
DICPCG:  Solving for po, Initial residual = 0.00067272, Final residual = 9.71655e-06, No Iterations 121
Solving Saturation Equation
diagonal:  Solving for sw, Initial residual = 0, Final residual = 0, No Iterations 0
Q_inj = 196575
Q_prod = 196575
qw_prod = -0
qo_prod = -196575

Imb = 1


Cmb = 1


NewDeltaT = 11

ExecutionTime = 152.95 s  ClockTime = 200 s

Time = 1771

Solving Pressure Equation
DICPCG:  Solving for po, Initial residual = 0.000666847, Final residual = 8.67606e-06, No Iterations 127
Solving Saturation Equation
diagonal:  Solving for sw, Initial residual = 0, Final residual = 0, No Iterations 0
Q_inj = 196575
Q_prod = 196575
qw_prod = -0
qo_prod = -196575

Imb = 1


Cmb = 1


NewDeltaT = 11

ExecutionTime = 154.18 s  ClockTime = 202 s

Time = 1782

Solving Pressure Equation
DICPCG:  Solving for po, Initial residual = 0.00066059, Final residual = 9.9641e-06, No Iterations 252
Solving Saturation Equation
diagonal:  Solving for sw, Initial residual = 0, Final residual = 0, No Iterations 0
Q_inj = 196575
Q_prod = 196575
qw_prod = -0
qo_prod = -196575

Imb = 1


Cmb = 1


NewDeltaT = 11

ExecutionTime = 155.4 s  ClockTime = 203 s

Time = 1793

Solving Pressure Equation
DICPCG:  Solving for po, Initial residual = 0.000655965, Final residual = 9.50142e-06, No Iterations 121
Solving Saturation Equation
diagonal:  Solving for sw, Initial residual = 0, Final residual = 0, No Iterations 0
Q_inj = 196575
Q_prod = 196575
qw_prod = -0
qo_prod = -196575

Imb = 1


Cmb = 1


NewDeltaT = 11

ExecutionTime = 156.06 s  ClockTime = 204 s

Time = 1804

Solving Pressure Equation
DICPCG:  Solving for po, Initial residual = 0.000651106, Final residual = 9.4254e-06, No Iterations 126
Solving Saturation Equation
diagonal:  Solving for sw, Initial residual = 0, Final residual = 0, No Iterations 0
Q_inj = 196575
Q_prod = 196575
qw_prod = -0
qo_prod = -196575

Imb = 1


Cmb = 1


NewDeltaT = 11

ExecutionTime = 156.78 s  ClockTime = 205 s

Time = 1815

Solving Pressure Equation
DICPCG:  Solving for po, Initial residual = 0.000648982, Final residual = 9.80937e-06, No Iterations 253
Solving Saturation Equation
diagonal:  Solving for sw, Initial residual = 0, Final residual = 0, No Iterations 0
Q_inj = 196575
Q_prod = 196575
qw_prod = -0
qo_prod = -196575

Imb = 1


Cmb = 1


NewDeltaT = 11

ExecutionTime = 158.53 s  ClockTime = 207 s

Time = 1826

Solving Pressure Equation
DICPCG:  Solving for po, Initial residual = 0.000650588, Final residual = 9.38243e-06, No Iterations 121
Solving Saturation Equation
diagonal:  Solving for sw, Initial residual = 0, Final residual = 0, No Iterations 0
Q_inj = 196575
Q_prod = 196575
qw_prod = -0
qo_prod = -196575

Imb = 1


Cmb = 1


NewDeltaT = 11

ExecutionTime = 159.27 s  ClockTime = 208 s

Time = 1837

Solving Pressure Equation
DICPCG:  Solving for po, Initial residual = 0.00065027, Final residual = 9.52482e-06, No Iterations 127
Solving Saturation Equation
diagonal:  Solving for sw, Initial residual = 0, Final residual = 0, No Iterations 0
Q_inj = 196575
Q_prod = 196575
qw_prod = -0
qo_prod = -196575

Imb = 1


Cmb = 1


NewDeltaT = 11

ExecutionTime = 160 s  ClockTime = 209 s

Time = 1848

Solving Pressure Equation
DICPCG:  Solving for po, Initial residual = 0.000650673, Final residual = 9.79089e-06, No Iterations 250
Solving Saturation Equation
diagonal:  Solving for sw, Initial residual = 0, Final residual = 0, No Iterations 0
Q_inj = 196575
Q_prod = 196575
qw_prod = -0
qo_prod = -196575

Imb = 1


Cmb = 1


NewDeltaT = 11

ExecutionTime = 161.28 s  ClockTime = 210 s

Time = 1859

Solving Pressure Equation
DICPCG:  Solving for po, Initial residual = 0.000649797, Final residual = 9.25784e-06, No Iterations 121
Solving Saturation Equation
diagonal:  Solving for sw, Initial residual = 0, Final residual = 0, No Iterations 0
Q_inj = 196575
Q_prod = 196575
qw_prod = -0
qo_prod = -196575

Imb = 1


Cmb = 1


NewDeltaT = 11

ExecutionTime = 162.18 s  ClockTime = 211 s

Time = 1870

Solving Pressure Equation
DICPCG:  Solving for po, Initial residual = 0.00064516, Final residual = 9.3418e-06, No Iterations 126
Solving Saturation Equation
diagonal:  Solving for sw, Initial residual = 0, Final residual = 0, No Iterations 0
Q_inj = 196575
Q_prod = 196575
qw_prod = -0
qo_prod = -196575

Imb = 1


Cmb = 1


NewDeltaT = 11

ExecutionTime = 162.94 s  ClockTime = 212 s

Time = 1881

Solving Pressure Equation
DICPCG:  Solving for po, Initial residual = 0.00064155, Final residual = 9.27133e-06, No Iterations 257
Solving Saturation Equation
diagonal:  Solving for sw, Initial residual = 0, Final residual = 0, No Iterations 0
Q_inj = 196575
Q_prod = 196575
qw_prod = -0
qo_prod = -196575

Imb = 1


Cmb = 1


NewDeltaT = 11

ExecutionTime = 163.94 s  ClockTime = 213 s

Time = 1892

Solving Pressure Equation
DICPCG:  Solving for po, Initial residual = 0.000639124, Final residual = 9.53353e-06, No Iterations 121
Solving Saturation Equation
diagonal:  Solving for sw, Initial residual = 0, Final residual = 0, No Iterations 0
Q_inj = 196575
Q_prod = 196575
qw_prod = -0
qo_prod = -196575

Imb = 1


Cmb = 1


NewDeltaT = 11

ExecutionTime = 165.34 s  ClockTime = 215 s

Time = 1903

Solving Pressure Equation
DICPCG:  Solving for po, Initial residual = 0.000634933, Final residual = 9.5412e-06, No Iterations 127
Solving Saturation Equation
diagonal:  Solving for sw, Initial residual = 0, Final residual = 0, No Iterations 0
Q_inj = 196575
Q_prod = 196575
qw_prod = -0
qo_prod = -196575

Imb = 1


Cmb = 1


NewDeltaT = 11

ExecutionTime = 166.32 s  ClockTime = 216 s

Time = 1914

Solving Pressure Equation
DICPCG:  Solving for po, Initial residual = 0.0006299, Final residual = 9.68512e-06, No Iterations 257
Solving Saturation Equation
diagonal:  Solving for sw, Initial residual = 0, Final residual = 0, No Iterations 0
Q_inj = 196575
Q_prod = 196575
qw_prod = -0
qo_prod = -196575

Imb = 1


Cmb = 1


NewDeltaT = 11

ExecutionTime = 167.31 s  ClockTime = 217 s

Time = 1925

Solving Pressure Equation
DICPCG:  Solving for po, Initial residual = 0.000628538, Final residual = 9.46646e-06, No Iterations 121
Solving Saturation Equation
diagonal:  Solving for sw, Initial residual = 0, Final residual = 0, No Iterations 0
Q_inj = 196575
Q_prod = 196575
qw_prod = -0
qo_prod = -196575

Imb = 1


Cmb = 1


NewDeltaT = 11

ExecutionTime = 168.77 s  ClockTime = 219 s

Time = 1936

Solving Pressure Equation
DICPCG:  Solving for po, Initial residual = 0.000625756, Final residual = 9.47081e-06, No Iterations 127
Solving Saturation Equation
diagonal:  Solving for sw, Initial residual = 0, Final residual = 0, No Iterations 0
Q_inj = 196575
Q_prod = 196575
qw_prod = -0
qo_prod = -196575

Imb = 1


Cmb = 1


NewDeltaT = 11

ExecutionTime = 169.89 s  ClockTime = 220 s

Time = 1947

Solving Pressure Equation
DICPCG:  Solving for po, Initial residual = 0.000622722, Final residual = 9.82207e-06, No Iterations 252
Solving Saturation Equation
diagonal:  Solving for sw, Initial residual = 0, Final residual = 0, No Iterations 0
Q_inj = 196575
Q_prod = 196575
qw_prod = -0
qo_prod = -196575

Imb = 1


Cmb = 1


NewDeltaT = 11

ExecutionTime = 171.05 s  ClockTime = 221 s

Time = 1958

Solving Pressure Equation
DICPCG:  Solving for po, Initial residual = 0.000619797, Final residual = 8.87852e-06, No Iterations 121
Solving Saturation Equation
diagonal:  Solving for sw, Initial residual = 0, Final residual = 0, No Iterations 0
Q_inj = 196575
Q_prod = 196575
qw_prod = -0
qo_prod = -196575

Imb = 1


Cmb = 1


NewDeltaT = 11

ExecutionTime = 172.38 s  ClockTime = 223 s

Time = 1969

Solving Pressure Equation
DICPCG:  Solving for po, Initial residual = 0.000615364, Final residual = 9.91535e-06, No Iterations 128
Solving Saturation Equation
diagonal:  Solving for sw, Initial residual = 0, Final residual = 0, No Iterations 0
Q_inj = 196575
Q_prod = 196575
qw_prod = -0
qo_prod = -196575

Imb = 1


Cmb = 1


NewDeltaT = 11

ExecutionTime = 173.5 s  ClockTime = 224 s

Time = 1980

Solving Pressure Equation
DICPCG:  Solving for po, Initial residual = 0.000615073, Final residual = 9.96516e-06, No Iterations 258
Solving Saturation Equation
diagonal:  Solving for sw, Initial residual = 0, Final residual = 0, No Iterations 0
Q_inj = 196575
Q_prod = 196575
qw_prod = -0
qo_prod = -196575

Imb = 1


Cmb = 1


NewDeltaT = 11

ExecutionTime = 174.56 s  ClockTime = 226 s

Time = 1991

Solving Pressure Equation
DICPCG:  Solving for po, Initial residual = 0.000614351, Final residual = 9.12823e-06, No Iterations 121
Solving Saturation Equation
diagonal:  Solving for sw, Initial residual = 0, Final residual = 0, No Iterations 0
Q_inj = 196575
Q_prod = 196575
qw_prod = -0
qo_prod = -196575

Imb = 1


Cmb = 1


NewDeltaT = 11

ExecutionTime = 175.99 s  ClockTime = 227 s

Time = 2002

Solving Pressure Equation
DICPCG:  Solving for po, Initial residual = 0.000611802, Final residual = 9.30343e-06, No Iterations 128
Solving Saturation Equation
diagonal:  Solving for sw, Initial residual = 0, Final residual = 0, No Iterations 0
Q_inj = 196575
Q_prod = 196575
qw_prod = -0
qo_prod = -196575

Imb = 1


Cmb = 1


NewDeltaT = 11

ExecutionTime = 176.85 s  ClockTime = 228 s

Time = 2013

Solving Pressure Equation
DICPCG:  Solving for po, Initial residual = 0.000610214, Final residual = 9.92716e-06, No Iterations 258
Solving Saturation Equation
diagonal:  Solving for sw, Initial residual = 0, Final residual = 0, No Iterations 0
Q_inj = 196575
Q_prod = 196575
qw_prod = -0
qo_prod = -196575

Imb = 1


Cmb = 1


NewDeltaT = 11

ExecutionTime = 177.81 s  ClockTime = 229 s

Time = 2024

Solving Pressure Equation
DICPCG:  Solving for po, Initial residual = 0.000610409, Final residual = 9.70862e-06, No Iterations 121
Solving Saturation Equation
diagonal:  Solving for sw, Initial residual = 0, Final residual = 0, No Iterations 0
Q_inj = 196575
Q_prod = 196575
qw_prod = -0
qo_prod = -196575

Imb = 1


Cmb = 1


NewDeltaT = 11

ExecutionTime = 178.83 s  ClockTime = 231 s

Time = 2035

Solving Pressure Equation
DICPCG:  Solving for po, Initial residual = 0.000609769, Final residual = 9.97079e-06, No Iterations 128
Solving Saturation Equation
diagonal:  Solving for sw, Initial residual = 0, Final residual = 0, No Iterations 0
Q_inj = 196575
Q_prod = 196575
qw_prod = -0
qo_prod = -196575

Imb = 1


Cmb = 1


NewDeltaT = 11

ExecutionTime = 179.87 s  ClockTime = 232 s

Time = 2046

Solving Pressure Equation
DICPCG:  Solving for po, Initial residual = 0.000609385, Final residual = 9.89547e-06, No Iterations 253
Solving Saturation Equation
diagonal:  Solving for sw, Initial residual = 0, Final residual = 0, No Iterations 0
Q_inj = 196575
Q_prod = 196575
qw_prod = -0
qo_prod = -196575

Imb = 1


Cmb = 1


NewDeltaT = 11

ExecutionTime = 180.82 s  ClockTime = 233 s

Time = 2057

Solving Pressure Equation
DICPCG:  Solving for po, Initial residual = 0.000607568, Final residual = 9.64858e-06, No Iterations 122
Solving Saturation Equation
diagonal:  Solving for sw, Initial residual = 0, Final residual = 0, No Iterations 0
Q_inj = 196575
Q_prod = 196575
qw_prod = -0
qo_prod = -196575

Imb = 1


Cmb = 1


NewDeltaT = 11

ExecutionTime = 181.71 s  ClockTime = 234 s

Time = 2068

Solving Pressure Equation
DICPCG:  Solving for po, Initial residual = 0.00060304, Final residual = 9.78584e-06, No Iterations 258
Solving Saturation Equation
diagonal:  Solving for sw, Initial residual = 0, Final residual = 0, No Iterations 0
Q_inj = 196575
Q_prod = 196575
qw_prod = -0
qo_prod = -196575

Imb = 1


Cmb = 1


NewDeltaT = 11

ExecutionTime = 183.42 s  ClockTime = 236 s

Time = 2079

Solving Pressure Equation
DICPCG:  Solving for po, Initial residual = 0.000600243, Final residual = 9.72486e-06, No Iterations 126
Solving Saturation Equation
diagonal:  Solving for sw, Initial residual = 0, Final residual = 0, No Iterations 0
Q_inj = 196575
Q_prod = 196575
qw_prod = -0
qo_prod = -196575

Imb = 1


Cmb = 1


NewDeltaT = 11

ExecutionTime = 184.04 s  ClockTime = 237 s

Time = 2090

Solving Pressure Equation
DICPCG:  Solving for po, Initial residual = 0.000596513, Final residual = 9.15983e-06, No Iterations 179
Solving Saturation Equation
diagonal:  Solving for sw, Initial residual = 0, Final residual = 0, No Iterations 0
Q_inj = 196575
Q_prod = 196575
qw_prod = -0
qo_prod = -196575

Imb = 1


Cmb = 1


NewDeltaT = 11

ExecutionTime = 184.9 s  ClockTime = 238 s

Time = 2101

Solving Pressure Equation
DICPCG:  Solving for po, Initial residual = 0.000593338, Final residual = 9.80088e-06, No Iterations 258
Solving Saturation Equation
diagonal:  Solving for sw, Initial residual = 0, Final residual = 0, No Iterations 0
Q_inj = 196575
Q_prod = 196575
qw_prod = -0
qo_prod = -196575

Imb = 1


Cmb = 1


NewDeltaT = 11

ExecutionTime = 186.55 s  ClockTime = 240 s

Time = 2112

Solving Pressure Equation
DICPCG:  Solving for po, Initial residual = 0.00059048, Final residual = 9.68516e-06, No Iterations 122
Solving Saturation Equation
diagonal:  Solving for sw, Initial residual = 0, Final residual = 0, No Iterations 0
Q_inj = 196575
Q_prod = 196575
qw_prod = -0
qo_prod = -196575

Imb = 1


Cmb = 1


NewDeltaT = 11

ExecutionTime = 187.42 s  ClockTime = 241 s

Time = 2123

Solving Pressure Equation
DICPCG:  Solving for po, Initial residual = 0.000588246, Final residual = 9.9965e-06, No Iterations 127
Solving Saturation Equation
diagonal:  Solving for sw, Initial residual = 0, Final residual = 0, No Iterations 0
Q_inj = 196575
Q_prod = 196575
qw_prod = -0
qo_prod = -196575

Imb = 1


Cmb = 1


NewDeltaT = 11

ExecutionTime = 187.99 s  ClockTime = 242 s

Time = 2134

Solving Pressure Equation
DICPCG:  Solving for po, Initial residual = 0.000587588, Final residual = 9.97528e-06, No Iterations 258
Solving Saturation Equation
diagonal:  Solving for sw, Initial residual = 0, Final residual = 0, No Iterations 0
Q_inj = 196575
Q_prod = 196575
qw_prod = -0
qo_prod = -196575

Imb = 1


Cmb = 1


NewDeltaT = 11

ExecutionTime = 189.25 s  ClockTime = 243 s

Time = 2145

Solving Pressure Equation
DICPCG:  Solving for po, Initial residual = 0.000586728, Final residual = 9.69896e-06, No Iterations 125
Solving Saturation Equation
diagonal:  Solving for sw, Initial residual = 0, Final residual = 0, No Iterations 0
Q_inj = 196575
Q_prod = 196575
qw_prod = -0
qo_prod = -196575

Imb = 1


Cmb = 1


NewDeltaT = 11

ExecutionTime = 190.73 s  ClockTime = 245 s

Time = 2156

Solving Pressure Equation
DICPCG:  Solving for po, Initial residual = 0.000583191, Final residual = 9.93447e-06, No Iterations 259
Solving Saturation Equation
diagonal:  Solving for sw, Initial residual = 0, Final residual = 0, No Iterations 0
Q_inj = 196575
Q_prod = 196575
qw_prod = -0
qo_prod = -196575

Imb = 1


Cmb = 1


NewDeltaT = 11

ExecutionTime = 191.69 s  ClockTime = 246 s

Time = 2167

Solving Pressure Equation
DICPCG:  Solving for po, Initial residual = 0.00058138, Final residual = 9.42801e-06, No Iterations 123
Solving Saturation Equation
diagonal:  Solving for sw, Initial residual = 0, Final residual = 0, No Iterations 0
Q_inj = 196575
Q_prod = 196575
qw_prod = -0
qo_prod = -196575

Imb = 1


Cmb = 1


NewDeltaT = 11

ExecutionTime = 192.53 s  ClockTime = 247 s

Time = 2178

Solving Pressure Equation
[...]
Q_inj = 196575
Q_prod = 196575
qw_prod = -122392
qo_prod = -74182.7

Imb = 1.00115


Cmb = 2.26795


NewDeltaT = 11

ExecutionTime = 6631.2 s  ClockTime = 8601 s

Time = 65197

Solving Pressure Equation
DICPCG:  Solving for po, Initial residual = 1.94513e-05, Final residual = 8.43177e-06, No Iterations 171
Solving Saturation Equation
diagonal:  Solving for sw, Initial residual = 0, Final residual = 0, No Iterations 0
Q_inj = 196575
Q_prod = 196575
qw_prod = -122339
qo_prod = -74236.5

Imb = 0.999275


Cmb = 2.26609


NewDeltaT = 11

ExecutionTime = 6632.03 s  ClockTime = 8602 s

Time = 65208

Solving Pressure Equation
DICPCG:  Solving for po, Initial residual = 1.66054e-05, Final residual = 9.8365e-06, No Iterations 1
Solving Saturation Equation
diagonal:  Solving for sw, Initial residual = 0, Final residual = 0, No Iterations 0
Q_inj = 196575
Q_prod = 196575
qw_prod = -122428
qo_prod = -74147.2

Imb = 1.0012


Cmb = 2.26861


NewDeltaT = 11

ExecutionTime = 6632.44 s  ClockTime = 8602 s

Time = 65219

Solving Pressure Equation
DICPCG:  Solving for po, Initial residual = 1.96003e-05, Final residual = 9.95458e-06, No Iterations 172
Solving Saturation Equation
diagonal:  Solving for sw, Initial residual = 0, Final residual = 0, No Iterations 0
Q_inj = 196575
Q_prod = 196575
qw_prod = -122380
qo_prod = -74195.1

Imb = 0.999355


Cmb = 2.26693


NewDeltaT = 11

ExecutionTime = 6633.53 s  ClockTime = 8604 s

Time = 65230

Solving Pressure Equation
DICPCG:  Solving for po, Initial residual = 1.73495e-05, Final residual = 9.51626e-06, No Iterations 2
Solving Saturation Equation
diagonal:  Solving for sw, Initial residual = 0, Final residual = 0, No Iterations 0
Q_inj = 196575
Q_prod = 196575
qw_prod = -122467
qo_prod = -74108

Imb = 1.00118


Cmb = 2.26938


NewDeltaT = 11

ExecutionTime = 6634.13 s  ClockTime = 8604 s

Time = 65241

Solving Pressure Equation
DICPCG:  Solving for po, Initial residual = 1.9331e-05, Final residual = 8.9791e-06, No Iterations 171
Solving Saturation Equation
diagonal:  Solving for sw, Initial residual = 0, Final residual = 0, No Iterations 0
Q_inj = 196575
Q_prod = 196575
qw_prod = -122412
qo_prod = -74162.8

Imb = 0.999262


Cmb = 2.26749


NewDeltaT = 11

ExecutionTime = 6634.98 s  ClockTime = 8606 s

Time = 65252

Solving Pressure Equation
DICPCG:  Solving for po, Initial residual = 1.70413e-05, Final residual = 9.83938e-06, No Iterations 1
Solving Saturation Equation
diagonal:  Solving for sw, Initial residual = 0, Final residual = 0, No Iterations 0
Q_inj = 196575
Q_prod = 196575
qw_prod = -122502
qo_prod = -74072.8

Imb = 1.00121


Cmb = 2.27003


NewDeltaT = 11

ExecutionTime = 6635.45 s  ClockTime = 8606 s

Time = 65263

Solving Pressure Equation
DICPCG:  Solving for po, Initial residual = 1.95468e-05, Final residual = 9.6157e-06, No Iterations 171
Solving Saturation Equation
diagonal:  Solving for sw, Initial residual = 0, Final residual = 0, No Iterations 0
Q_inj = 196575
Q_prod = 196575
qw_prod = -122454
qo_prod = -74121.1

Imb = 0.999349


Cmb = 2.26834


NewDeltaT = 11

ExecutionTime = 6636.38 s  ClockTime = 8607 s

Time = 65274

Solving Pressure Equation
DICPCG:  Solving for po, Initial residual = 1.73221e-05, Final residual = 9.48826e-06, No Iterations 2
Solving Saturation Equation
diagonal:  Solving for sw, Initial residual = 0, Final residual = 0, No Iterations 0
Q_inj = 196575
Q_prod = 196575
qw_prod = -122541
qo_prod = -74034

Imb = 1.00118


Cmb = 2.27079


NewDeltaT = 11

ExecutionTime = 6637.05 s  ClockTime = 8608 s

Time = 65285

Solving Pressure Equation
DICPCG:  Solving for po, Initial residual = 1.94972e-05, Final residual = 9.43117e-06, No Iterations 171
Solving Saturation Equation
diagonal:  Solving for sw, Initial residual = 0, Final residual = 0, No Iterations 0
Q_inj = 196575
Q_prod = 196575
qw_prod = -122487
qo_prod = -74088.3

Imb = 0.999268


Cmb = 2.26892


NewDeltaT = 11

ExecutionTime = 6638.04 s  ClockTime = 8610 s

Time = 65296

Solving Pressure Equation
DICPCG:  Solving for po, Initial residual = 1.7334e-05, Final residual = 9.33855e-06, No Iterations 2
Solving Saturation Equation
diagonal:  Solving for sw, Initial residual = 0, Final residual = 0, No Iterations 0
Q_inj = 196575
Q_prod = 196575
qw_prod = -122580
qo_prod = -73995.1

Imb = 1.00126


Cmb = 2.27156


NewDeltaT = 11

ExecutionTime = 6638.42 s  ClockTime = 8610 s

Time = 65307

Solving Pressure Equation
DICPCG:  Solving for po, Initial residual = 1.94004e-05, Final residual = 9.16569e-06, No Iterations 171
Solving Saturation Equation
diagonal:  Solving for sw, Initial residual = 0, Final residual = 0, No Iterations 0
Q_inj = 196575
Q_prod = 196575
qw_prod = -122522
qo_prod = -74053.4

Imb = 0.999212


Cmb = 2.26956


NewDeltaT = 11

ExecutionTime = 6639.46 s  ClockTime = 8611 s

Time = 65318

Solving Pressure Equation
DICPCG:  Solving for po, Initial residual = 1.73325e-05, Final residual = 9.81432e-06, No Iterations 1
Solving Saturation Equation
diagonal:  Solving for sw, Initial residual = 0, Final residual = 0, No Iterations 0
Q_inj = 196575
Q_prod = 196575
qw_prod = -122614
qo_prod = -73960.7

Imb = 1.00125


Cmb = 2.27219


NewDeltaT = 11

ExecutionTime = 6640.46 s  ClockTime = 8613 s

Time = 65329

Solving Pressure Equation
DICPCG:  Solving for po, Initial residual = 1.95779e-05, Final residual = 9.26125e-06, No Iterations 172
Solving Saturation Equation
diagonal:  Solving for sw, Initial residual = 0, Final residual = 0, No Iterations 0
Q_inj = 196575
Q_prod = 196575
qw_prod = -122564
qo_prod = -74011.1

Imb = 0.999318


Cmb = 2.27042


NewDeltaT = 11

ExecutionTime = 6641.23 s  ClockTime = 8614 s

Time = 65340

Solving Pressure Equation
DICPCG:  Solving for po, Initial residual = 1.68434e-05, Final residual = 9.96621e-06, No Iterations 1
Solving Saturation Equation
diagonal:  Solving for sw, Initial residual = 0, Final residual = 0, No Iterations 0
Q_inj = 196575
Q_prod = 196575
qw_prod = -122648
qo_prod = -73926.5

Imb = 1.00114


Cmb = 2.27281


NewDeltaT = 11

ExecutionTime = 6641.61 s  ClockTime = 8614 s

Time = 65351

Solving Pressure Equation
DICPCG:  Solving for po, Initial residual = 1.96683e-05, Final residual = 8.81269e-06, No Iterations 171
Solving Saturation Equation
diagonal:  Solving for sw, Initial residual = 0, Final residual = 0, No Iterations 0
Q_inj = 196575
Q_prod = 196575
qw_prod = -122604
qo_prod = -73971.1

Imb = 0.999397


Cmb = 2.27122


NewDeltaT = 11

ExecutionTime = 6642.32 s  ClockTime = 8615 s

Time = 65362

Solving Pressure Equation
DICPCG:  Solving for po, Initial residual = 1.65108e-05, Final residual = 9.93655e-06, No Iterations 1
Solving Saturation Equation
diagonal:  Solving for sw, Initial residual = 0, Final residual = 0, No Iterations 0
Q_inj = 196575
Q_prod = 196575
qw_prod = -122684
qo_prod = -73891.4

Imb = 1.00108


Cmb = 2.27346


NewDeltaT = 11

ExecutionTime = 6643.34 s  ClockTime = 8617 s

Time = 65373

Solving Pressure Equation
DICPCG:  Solving for po, Initial residual = 1.95949e-05, Final residual = 9.85982e-06, No Iterations 171
Solving Saturation Equation
diagonal:  Solving for sw, Initial residual = 0, Final residual = 0, No Iterations 0
Q_inj = 196575
Q_prod = 196575
qw_prod = -122642
qo_prod = -73932.7

Imb = 0.999442


Cmb = 2.27198


NewDeltaT = 11

ExecutionTime = 6644.2 s  ClockTime = 8618 s

Time = 65384

Solving Pressure Equation
DICPCG:  Solving for po, Initial residual = 1.73327e-05, Final residual = 9.59053e-06, No Iterations 2
Solving Saturation Equation
diagonal:  Solving for sw, Initial residual = 0, Final residual = 0, No Iterations 0
Q_inj = 196575
Q_prod = 196575
qw_prod = -122723
qo_prod = -73851.5

Imb = 1.0011


Cmb = 2.27426


NewDeltaT = 11

ExecutionTime = 6644.73 s  ClockTime = 8618 s

Time = 65395

Solving Pressure Equation
DICPCG:  Solving for po, Initial residual = 1.94239e-05, Final residual = 9.79654e-06, No Iterations 171
Solving Saturation Equation
diagonal:  Solving for sw, Initial residual = 0, Final residual = 0, No Iterations 0
Q_inj = 196575
Q_prod = 196575
qw_prod = -122673
qo_prod = -73901.7

Imb = 0.999321


Cmb = 2.2725


NewDeltaT = 11

ExecutionTime = 6645.6 s  ClockTime = 8620 s

Time = 65406

Solving Pressure Equation
DICPCG:  Solving for po, Initial residual = 1.76317e-05, Final residual = 9.415e-06, No Iterations 2
Solving Saturation Equation
diagonal:  Solving for sw, Initial residual = 0, Final residual = 0, No Iterations 0
Q_inj = 196575
Q_prod = 196575
qw_prod = -122763
qo_prod = -73812

Imb = 1.00121


Cmb = 2.27505


NewDeltaT = 11

ExecutionTime = 6646.4 s  ClockTime = 8621 s

Time = 65417

Solving Pressure Equation
DICPCG:  Solving for po, Initial residual = 1.93763e-05, Final residual = 9.17018e-06, No Iterations 171
Solving Saturation Equation
diagonal:  Solving for sw, Initial residual = 0, Final residual = 0, No Iterations 0
Q_inj = 196575
Q_prod = 196575
qw_prod = -122707
qo_prod = -73868.1

Imb = 0.999241


Cmb = 2.27311


NewDeltaT = 11

ExecutionTime = 6647.5 s  ClockTime = 8622 s

Time = 65428

Solving Pressure Equation
DICPCG:  Solving for po, Initial residual = 1.71995e-05, Final residual = 9.92554e-06, No Iterations 1
Solving Saturation Equation
diagonal:  Solving for sw, Initial residual = 0, Final residual = 0, No Iterations 0
Q_inj = 196575
Q_prod = 196575
qw_prod = -122798
qo_prod = -73777.5

Imb = 1.00123


Cmb = 2.27568


NewDeltaT = 11

ExecutionTime = 6647.9 s  ClockTime = 8623 s

Time = 65439

Solving Pressure Equation
DICPCG:  Solving for po, Initial residual = 1.96111e-05, Final residual = 9.36818e-06, No Iterations 171
Solving Saturation Equation
diagonal:  Solving for sw, Initial residual = 0, Final residual = 0, No Iterations 0
Q_inj = 196575
Q_prod = 196575
qw_prod = -122749
qo_prod = -73826.2

Imb = 0.99934


Cmb = 2.27397


NewDeltaT = 11

ExecutionTime = 6648.77 s  ClockTime = 8624 s

Time = 65450

Solving Pressure Equation
DICPCG:  Solving for po, Initial residual = 1.70347e-05, Final residual = 9.35364e-06, No Iterations 2
Solving Saturation Equation
diagonal:  Solving for sw, Initial residual = 0, Final residual = 0, No Iterations 0
Q_inj = 196575
Q_prod = 196575
qw_prod = -122836
qo_prod = -73739.2

Imb = 1.00118


Cmb = 2.27644


NewDeltaT = 11

ExecutionTime = 6649.36 s  ClockTime = 8625 s

Time = 65461

Solving Pressure Equation
DICPCG:  Solving for po, Initial residual = 1.93313e-05, Final residual = 9.12208e-06, No Iterations 171
Solving Saturation Equation
diagonal:  Solving for sw, Initial residual = 0, Final residual = 0, No Iterations 0
Q_inj = 196575
Q_prod = 196575
qw_prod = -122781
qo_prod = -73793.6

Imb = 0.999264


Cmb = 2.27455


NewDeltaT = 11

ExecutionTime = 6650.39 s  ClockTime = 8626 s

Time = 65472

Solving Pressure Equation
DICPCG:  Solving for po, Initial residual = 1.70559e-05, Final residual = 9.84441e-06, No Iterations 1
Solving Saturation Equation
diagonal:  Solving for sw, Initial residual = 0, Final residual = 0, No Iterations 0
Q_inj = 196575
Q_prod = 196575
qw_prod = -122870
qo_prod = -73704.8

Imb = 1.0012


Cmb = 2.27707


NewDeltaT = 11

ExecutionTime = 6650.79 s  ClockTime = 8626 s

Time = 65483

Solving Pressure Equation
DICPCG:  Solving for po, Initial residual = 1.95255e-05, Final residual = 9.41314e-06, No Iterations 171
Solving Saturation Equation
diagonal:  Solving for sw, Initial residual = 0, Final residual = 0, No Iterations 0
Q_inj = 196575
Q_prod = 196575
qw_prod = -122823
qo_prod = -73752.2

Imb = 0.999357


Cmb = 2.27539


NewDeltaT = 11

ExecutionTime = 6651.57 s  ClockTime = 8627 s

Time = 65494

Solving Pressure Equation
DICPCG:  Solving for po, Initial residual = 1.7116e-05, Final residual = 9.42141e-06, No Iterations 2
Solving Saturation Equation
diagonal:  Solving for sw, Initial residual = 0, Final residual = 0, No Iterations 0
Q_inj = 196575
Q_prod = 196575
qw_prod = -122908
qo_prod = -73666.6

Imb = 1.00116


Cmb = 2.27782


NewDeltaT = 11

ExecutionTime = 6652.06 s  ClockTime = 8628 s

Time = 65505

Solving Pressure Equation
DICPCG:  Solving for po, Initial residual = 1.93884e-05, Final residual = 9.90422e-06, No Iterations 171
Solving Saturation Equation
diagonal:  Solving for sw, Initial residual = 0, Final residual = 0, No Iterations 0
Q_inj = 196575
Q_prod = 196575
qw_prod = -122855
qo_prod = -73719.6

Imb = 0.999282


Cmb = 2.27597


NewDeltaT = 11

ExecutionTime = 6653.1 s  ClockTime = 8629 s

Time = 65516

Solving Pressure Equation
DICPCG:  Solving for po, Initial residual = 1.76658e-05, Final residual = 9.36286e-06, No Iterations 2
Solving Saturation Equation
diagonal:  Solving for sw, Initial residual = 0, Final residual = 0, No Iterations 0
Q_inj = 196575
Q_prod = 196575
qw_prod = -122947
qo_prod = -73628.2

Imb = 1.00124


Cmb = 2.27858


NewDeltaT = 11

ExecutionTime = 6653.58 s  ClockTime = 8630 s

Time = 65527

Solving Pressure Equation
DICPCG:  Solving for po, Initial residual = 1.9329e-05, Final residual = 9.88806e-06, No Iterations 171
Solving Saturation Equation
diagonal:  Solving for sw, Initial residual = 0, Final residual = 0, No Iterations 0
Q_inj = 196575
Q_prod = 196575
qw_prod = -122890
qo_prod = -73685.1

Imb = 0.999227


Cmb = 2.27661


NewDeltaT = 11

ExecutionTime = 6654.41 s  ClockTime = 8631 s

Time = 65538

Solving Pressure Equation
DICPCG:  Solving for po, Initial residual = 1.78045e-05, Final residual = 9.26268e-06, No Iterations 2
Solving Saturation Equation
diagonal:  Solving for sw, Initial residual = 0, Final residual = 0, No Iterations 0
Q_inj = 196575
Q_prod = 196575
qw_prod = -122985
qo_prod = -73590.3

Imb = 1.00129


Cmb = 2.27932


NewDeltaT = 11

ExecutionTime = 6654.8 s  ClockTime = 8631 s

Time = 65549

Solving Pressure Equation
DICPCG:  Solving for po, Initial residual = 1.92956e-05, Final residual = 9.43126e-06, No Iterations 171
Solving Saturation Equation
diagonal:  Solving for sw, Initial residual = 0, Final residual = 0, No Iterations 0
Q_inj = 196575
Q_prod = 196575
qw_prod = -122925
qo_prod = -73649.8

Imb = 0.999192


Cmb = 2.27727


NewDeltaT = 11

ExecutionTime = 6656.01 s  ClockTime = 8633 s

Time = 65560

Solving Pressure Equation
DICPCG:  Solving for po, Initial residual = 1.74833e-05, Final residual = 9.89743e-06, No Iterations 1
Solving Saturation Equation
diagonal:  Solving for sw, Initial residual = 0, Final residual = 0, No Iterations 0
Q_inj = 196575
Q_prod = 196575
qw_prod = -123018
qo_prod = -73557

Imb = 1.00126


Cmb = 2.27993


NewDeltaT = 11

ExecutionTime = 6656.74 s  ClockTime = 8634 s

Time = 65571

Solving Pressure Equation
DICPCG:  Solving for po, Initial residual = 1.95348e-05, Final residual = 9.7589e-06, No Iterations 170
Solving Saturation Equation
diagonal:  Solving for sw, Initial residual = 0, Final residual = 0, No Iterations 0
Q_inj = 196575
Q_prod = 196575
qw_prod = -122968
qo_prod = -73607.3

Imb = 0.999317


Cmb = 2.27816


NewDeltaT = 11

ExecutionTime = 6657.86 s  ClockTime = 8636 s

Time = 65582

Solving Pressure Equation
DICPCG:  Solving for po, Initial residual = 1.73981e-05, Final residual = 9.56024e-06, No Iterations 2
Solving Saturation Equation
diagonal:  Solving for sw, Initial residual = 0, Final residual = 0, No Iterations 0
Q_inj = 196575
Q_prod = 196575
qw_prod = -123055
qo_prod = -73519.6

Imb = 1.00119


Cmb = 2.28066


NewDeltaT = 11

ExecutionTime = 6658.24 s  ClockTime = 8636 s

Time = 65593

Solving Pressure Equation
DICPCG:  Solving for po, Initial residual = 1.95118e-05, Final residual = 9.40734e-06, No Iterations 171
Solving Saturation Equation
diagonal:  Solving for sw, Initial residual = 0, Final residual = 0, No Iterations 0
Q_inj = 196575
Q_prod = 196575
qw_prod = -123001
qo_prod = -73574.3

Imb = 0.999256


Cmb = 2.27875


NewDeltaT = 11

ExecutionTime = 6659.61 s  ClockTime = 8638 s

Time = 65604

Solving Pressure Equation
DICPCG:  Solving for po, Initial residual = 1.73377e-05, Final residual = 9.94999e-06, No Iterations 1
Solving Saturation Equation
diagonal:  Solving for sw, Initial residual = 0, Final residual = 0, No Iterations 0
Q_inj = 196575
Q_prod = 196575
qw_prod = -123089
qo_prod = -73485.7

Imb = 1.00121


Cmb = 2.28128


NewDeltaT = 11

ExecutionTime = 6660.21 s  ClockTime = 8638 s

Time = 65615

Solving Pressure Equation
DICPCG:  Solving for po, Initial residual = 1.95366e-05, Final residual = 9.47582e-06, No Iterations 172
Solving Saturation Equation
diagonal:  Solving for sw, Initial residual = 0, Final residual = 0, No Iterations 0
Q_inj = 196575
Q_prod = 196575
qw_prod = -123042
qo_prod = -73533

Imb = 0.999358


Cmb = 2.2796


NewDeltaT = 11

ExecutionTime = 6660.95 s  ClockTime = 8639 s

Time = 65626

Solving Pressure Equation
DICPCG:  Solving for po, Initial residual = 1.68192e-05, Final residual = 9.89872e-06, No Iterations 1
Solving Saturation Equation
diagonal:  Solving for sw, Initial residual = 0, Final residual = 0, No Iterations 0
Q_inj = 196575
Q_prod = 196575
qw_prod = -123123
qo_prod = -73451.9

Imb = 1.0011


Cmb = 2.2819


NewDeltaT = 11

ExecutionTime = 6661.25 s  ClockTime = 8640 s

Time = 65637

Solving Pressure Equation
DICPCG:  Solving for po, Initial residual = 1.94911e-05, Final residual = 9.54115e-06, No Iterations 171
Solving Saturation Equation
diagonal:  Solving for sw, Initial residual = 0, Final residual = 0, No Iterations 0
Q_inj = 196575
Q_prod = 196575
qw_prod = -123081
qo_prod = -73494

Imb = 0.999427


Cmb = 2.28038


NewDeltaT = 11

ExecutionTime = 6662.06 s  ClockTime = 8641 s

Time = 65648

Solving Pressure Equation
DICPCG:  Solving for po, Initial residual = 1.69363e-05, Final residual = 9.39919e-06, No Iterations 2
Solving Saturation Equation
diagonal:  Solving for sw, Initial residual = 0, Final residual = 0, No Iterations 0
Q_inj = 196575
Q_prod = 196575
qw_prod = -123162
qo_prod = -73412.9

Imb = 1.0011


Cmb = 2.28268


NewDeltaT = 11

ExecutionTime = 6662.91 s  ClockTime = 8642 s

Time = 65659

Solving Pressure Equation
DICPCG:  Solving for po, Initial residual = 1.91458e-05, Final residual = 8.71531e-06, No Iterations 171
Solving Saturation Equation
diagonal:  Solving for sw, Initial residual = 0, Final residual = 0, No Iterations 0
Q_inj = 196575
Q_prod = 196575
qw_prod = -123112
qo_prod = -73462.8

Imb = 0.99932


Cmb = 2.28092


NewDeltaT = 11

ExecutionTime = 6663.58 s  ClockTime = 8643 s

Time = 65670

Solving Pressure Equation
DICPCG:  Solving for po, Initial residual = 1.67614e-05, Final residual = 9.77419e-06, No Iterations 1
Solving Saturation Equation
diagonal:  Solving for sw, Initial residual = 0, Final residual = 0, No Iterations 0
Q_inj = 196575
Q_prod = 196575
qw_prod = -123197
qo_prod = -73378.2

Imb = 1.00115


Cmb = 2.28333


NewDeltaT = 11

ExecutionTime = 6663.94 s  ClockTime = 8643 s

Time = 65681

Solving Pressure Equation
DICPCG:  Solving for po, Initial residual = 1.9402e-05, Final residual = 9.70708e-06, No Iterations 171
Solving Saturation Equation
diagonal:  Solving for sw, Initial residual = 0, Final residual = 0, No Iterations 0
Q_inj = 196575
Q_prod = 196575
qw_prod = -123152
qo_prod = -73422.8

Imb = 0.999393


Cmb = 2.28173


NewDeltaT = 11

ExecutionTime = 6664.83 s  ClockTime = 8645 s

Time = 65692

Solving Pressure Equation
DICPCG:  Solving for po, Initial residual = 1.71514e-05, Final residual = 9.39214e-06, No Iterations 2
Solving Saturation Equation
diagonal:  Solving for sw, Initial residual = 0, Final residual = 0, No Iterations 0
Q_inj = 196575
Q_prod = 196575
qw_prod = -123235
qo_prod = -73339.8

Imb = 1.00113


Cmb = 2.2841


NewDeltaT = 11

ExecutionTime = 6665.43 s  ClockTime = 8646 s

Time = 65703

Solving Pressure Equation
DICPCG:  Solving for po, Initial residual = 1.9186e-05, Final residual = 9.51578e-06, No Iterations 170
Solving Saturation Equation
diagonal:  Solving for sw, Initial residual = 0, Final residual = 0, No Iterations 0
Q_inj = 196575
Q_prod = 196575
qw_prod = -123184
qo_prod = -73391.1

Imb = 0.999301


Cmb = 2.28229


NewDeltaT = 11

ExecutionTime = 6666.27 s  ClockTime = 8647 s

End

