/*---------------------------------------------------------------------------*\
| =========                 |                                                 |
| \\      /  F ield         | OpenFOAM: The Open Source CFD Toolbox           |
|  \\    /   O peration     | Version:  2.1.0                                 |
|   \\  /    A nd           | Web:      www.OpenFOAM.org                      |
|    \\/     M anipulation  |                                                 |
\*---------------------------------------------------------------------------*/
Build  : 2.1.0-0bc225064152
Exec   : IMPES
Date   : May 18 2012
Time   : 11:54:35
Host   : "rafael-vb"
PID    : 2699
Case   : /home/rafael/OpenFOAM/rafael-2.1.0/SimulatorIMPES/v104/CasesDiss/UFPE
nProcs : 1
sigFpe : Enabling floating point exception trapping (FOAM_SIGFPE).
fileModificationChecking : Monitoring run-time modified files using timeStampMaster
allowSystemOperations : Disallowing user-supplied system call operations

// * * * * * * * * * * * * * * * * * * * * * * * * * * * * * * * * * * * * * //
Create time

Create mesh for time = 0

Reading fields                     [  OK  ]
Reading problem parameters         [  OK  ]
Creating tables                    [  OK  ]
Initializating problem fields      [  OK  ]
Setting sources                    [  OK  ]
Calculationg equation coefficients [  OK  ]

Starting time loop

Time = 11

Solving Pressure Equation
DICPCG:  Solving for po, Initial residual = 1, Final residual = 9.51937e-06, No Iterations 382
Solving Saturation Equation
diagonal:  Solving for sw, Initial residual = 0, Final residual = 0, No Iterations 0
Q_inj = 196575
Q_prod = 196575
qw_prod = -0
qo_prod = -196575

Imb = 1


Cmb = 1


NewDeltaT = 11

ExecutionTime = 13.45 s  ClockTime = 19 s

Time = 22

Solving Pressure Equation
DICPCG:  Solving for po, Initial residual = 0.477215, Final residual = 9.62501e-06, No Iterations 121
Solving Saturation Equation
diagonal:  Solving for sw, Initial residual = 0, Final residual = 0, No Iterations 0
Q_inj = 196575
Q_prod = 196575
qw_prod = -0
qo_prod = -196575

Imb = 1


Cmb = 1


NewDeltaT = 11

ExecutionTime = 16.95 s  ClockTime = 23 s

Time = 33

Solving Pressure Equation
DICPCG:  Solving for po, Initial residual = 0.043912, Final residual = 9.63291e-06, No Iterations 135
Solving Saturation Equation
diagonal:  Solving for sw, Initial residual = 0, Final residual = 0, No Iterations 0
Q_inj = 196575
Q_prod = 196575
qw_prod = -0
qo_prod = -196575

Imb = 1


Cmb = 1


NewDeltaT = 11

ExecutionTime = 20.83 s  ClockTime = 29 s

Time = 44

Solving Pressure Equation
DICPCG:  Solving for po, Initial residual = 0.0671534, Final residual = 9.46288e-06, No Iterations 135
Solving Saturation Equation
diagonal:  Solving for sw, Initial residual = 0, Final residual = 0, No Iterations 0
Q_inj = 196575
Q_prod = 196575
qw_prod = -0
qo_prod = -196575

Imb = 1


Cmb = 1


NewDeltaT = 11

ExecutionTime = 25.78 s  ClockTime = 42 s

Time = 55

Solving Pressure Equation
DICPCG:  Solving for po, Initial residual = 0.0343632, Final residual = 9.87588e-06, No Iterations 128
Solving Saturation Equation
diagonal:  Solving for sw, Initial residual = 0, Final residual = 0, No Iterations 0
Q_inj = 196575
Q_prod = 196575
qw_prod = -0
qo_prod = -196575

Imb = 1


Cmb = 1


NewDeltaT = 11

ExecutionTime = 29.89 s  ClockTime = 47 s

Time = 66

Solving Pressure Equation
DICPCG:  Solving for po, Initial residual = 0.0263449, Final residual = 9.21673e-06, No Iterations 135
Solving Saturation Equation
diagonal:  Solving for sw, Initial residual = 0, Final residual = 0, No Iterations 0
Q_inj = 196575
Q_prod = 196575
qw_prod = -0
qo_prod = -196575

Imb = 1


Cmb = 1


NewDeltaT = 11

ExecutionTime = 33.72 s  ClockTime = 52 s

Time = 77

Solving Pressure Equation
DICPCG:  Solving for po, Initial residual = 0.0236477, Final residual = 9.81206e-06, No Iterations 134
Solving Saturation Equation
diagonal:  Solving for sw, Initial residual = 0, Final residual = 0, No Iterations 0
Q_inj = 196575
Q_prod = 196575
qw_prod = -0
qo_prod = -196575

Imb = 1


Cmb = 1


NewDeltaT = 11

ExecutionTime = 37.57 s  ClockTime = 57 s

Time = 88

Solving Pressure Equation
DICPCG:  Solving for po, Initial residual = 0.0202397, Final residual = 9.21463e-06, No Iterations 135
Solving Saturation Equation
diagonal:  Solving for sw, Initial residual = 0, Final residual = 0, No Iterations 0
Q_inj = 196575
Q_prod = 196575
qw_prod = -0
qo_prod = -196575

Imb = 1


Cmb = 1


NewDeltaT = 11

ExecutionTime = 41.52 s  ClockTime = 62 s

Time = 99

Solving Pressure Equation
DICPCG:  Solving for po, Initial residual = 0.0173353, Final residual = 9.82428e-06, No Iterations 135
Solving Saturation Equation
diagonal:  Solving for sw, Initial residual = 0, Final residual = 0, No Iterations 0
Q_inj = 196575
Q_prod = 196575
qw_prod = -0
qo_prod = -196575

Imb = 1


Cmb = 1


NewDeltaT = 11

ExecutionTime = 45.78 s  ClockTime = 68 s

Time = 110

Solving Pressure Equation
DICPCG:  Solving for po, Initial residual = 0.0147313, Final residual = 9.86638e-06, No Iterations 136
Solving Saturation Equation
diagonal:  Solving for sw, Initial residual = 0, Final residual = 0, No Iterations 0
Q_inj = 196575
Q_prod = 196575
qw_prod = -0
qo_prod = -196575

Imb = 1


Cmb = 1


NewDeltaT = 11

ExecutionTime = 49.89 s  ClockTime = 73 s

Time = 121

Solving Pressure Equation
DICPCG:  Solving for po, Initial residual = 0.0127131, Final residual = 9.54643e-06, No Iterations 139
Solving Saturation Equation
diagonal:  Solving for sw, Initial residual = 0, Final residual = 0, No Iterations 0
Q_inj = 196575
Q_prod = 196575
qw_prod = -0
qo_prod = -196575

Imb = 1


Cmb = 1


NewDeltaT = 11

ExecutionTime = 53.77 s  ClockTime = 78 s

Time = 132

Solving Pressure Equation
DICPCG:  Solving for po, Initial residual = 0.0117369, Final residual = 9.89031e-06, No Iterations 139
Solving Saturation Equation
diagonal:  Solving for sw, Initial residual = 0, Final residual = 0, No Iterations 0
Q_inj = 196575
Q_prod = 196575
qw_prod = -0
qo_prod = -196575

Imb = 1


Cmb = 1


NewDeltaT = 11

ExecutionTime = 57.5 s  ClockTime = 83 s

Time = 143

Solving Pressure Equation
DICPCG:  Solving for po, Initial residual = 0.0111469, Final residual = 9.97908e-06, No Iterations 139
Solving Saturation Equation
diagonal:  Solving for sw, Initial residual = 0, Final residual = 0, No Iterations 0
Q_inj = 196575
Q_prod = 196575
qw_prod = -0
qo_prod = -196575

Imb = 1


Cmb = 1


NewDeltaT = 11

ExecutionTime = 61.25 s  ClockTime = 88 s

Time = 154

Solving Pressure Equation
DICPCG:  Solving for po, Initial residual = 0.0104829, Final residual = 9.63798e-06, No Iterations 242
Solving Saturation Equation
diagonal:  Solving for sw, Initial residual = 0, Final residual = 0, No Iterations 0
Q_inj = 196575
Q_prod = 196575
qw_prod = -0
qo_prod = -196575

Imb = 1


Cmb = 1


NewDeltaT = 11

ExecutionTime = 67.46 s  ClockTime = 96 s

Time = 165

Solving Pressure Equation
DICPCG:  Solving for po, Initial residual = 0.00973506, Final residual = 9.76343e-06, No Iterations 106
Solving Saturation Equation
diagonal:  Solving for sw, Initial residual = 0, Final residual = 0, No Iterations 0
Q_inj = 196575
Q_prod = 196575
qw_prod = -0
qo_prod = -196575

Imb = 1


Cmb = 1


NewDeltaT = 11

ExecutionTime = 71.11 s  ClockTime = 101 s

Time = 176

Solving Pressure Equation
DICPCG:  Solving for po, Initial residual = 0.0088955, Final residual = 9.45935e-06, No Iterations 116
Solving Saturation Equation
diagonal:  Solving for sw, Initial residual = 0, Final residual = 0, No Iterations 0
Q_inj = 196575
Q_prod = 196575
qw_prod = -0
qo_prod = -196575

Imb = 1


Cmb = 1


NewDeltaT = 11

ExecutionTime = 75.37 s  ClockTime = 107 s

Time = 187

Solving Pressure Equation
DICPCG:  Solving for po, Initial residual = 0.00814596, Final residual = 9.35594e-06, No Iterations 116
Solving Saturation Equation
diagonal:  Solving for sw, Initial residual = 0, Final residual = 0, No Iterations 0
Q_inj = 196575
Q_prod = 196575
qw_prod = -0
qo_prod = -196575

Imb = 1


Cmb = 1


NewDeltaT = 11

ExecutionTime = 78.9 s  ClockTime = 111 s

Time = 198

Solving Pressure Equation
DICPCG:  Solving for po, Initial residual = 0.00765033, Final residual = 9.48193e-06, No Iterations 116
Solving Saturation Equation
diagonal:  Solving for sw, Initial residual = 0, Final residual = 0, No Iterations 0
Q_inj = 196575
Q_prod = 196575
qw_prod = -0
qo_prod = -196575

Imb = 1


Cmb = 1


NewDeltaT = 11

ExecutionTime = 82.65 s  ClockTime = 116 s

Time = 209

Solving Pressure Equation
DICPCG:  Solving for po, Initial residual = 0.00724864, Final residual = 9.67057e-06, No Iterations 116
Solving Saturation Equation
diagonal:  Solving for sw, Initial residual = 0, Final residual = 0, No Iterations 0
Q_inj = 196575
Q_prod = 196575
qw_prod = -0
qo_prod = -196575

Imb = 1


Cmb = 1


NewDeltaT = 11

ExecutionTime = 86.27 s  ClockTime = 121 s

Time = 220

Solving Pressure Equation
DICPCG:  Solving for po, Initial residual = 0.00700197, Final residual = 9.88536e-06, No Iterations 116
Solving Saturation Equation
diagonal:  Solving for sw, Initial residual = 0, Final residual = 0, No Iterations 0
Q_inj = 196575
Q_prod = 196575
qw_prod = -0
qo_prod = -196575

Imb = 1


Cmb = 1


NewDeltaT = 11

ExecutionTime = 89.89 s  ClockTime = 125 s

Time = 231

Solving Pressure Equation
DICPCG:  Solving for po, Initial residual = 0.00676443, Final residual = 9.93415e-06, No Iterations 117
Solving Saturation Equation
diagonal:  Solving for sw, Initial residual = 0, Final residual = 0, No Iterations 0
Q_inj = 196575
Q_prod = 196575
qw_prod = -0
qo_prod = -196575

Imb = 1


Cmb = 1


NewDeltaT = 11

ExecutionTime = 94.12 s  ClockTime = 131 s

Time = 242

Solving Pressure Equation
DICPCG:  Solving for po, Initial residual = 0.00646701, Final residual = 9.87443e-06, No Iterations 119
Solving Saturation Equation
diagonal:  Solving for sw, Initial residual = 0, Final residual = 0, No Iterations 0
Q_inj = 196575
Q_prod = 196575
qw_prod = -0
qo_prod = -196575

Imb = 1


Cmb = 1


NewDeltaT = 11

ExecutionTime = 98.01 s  ClockTime = 137 s

Time = 253

Solving Pressure Equation
DICPCG:  Solving for po, Initial residual = 0.00615212, Final residual = 9.84793e-06, No Iterations 125
Solving Saturation Equation
diagonal:  Solving for sw, Initial residual = 0, Final residual = 0, No Iterations 0
Q_inj = 196575
Q_prod = 196575
qw_prod = -0
qo_prod = -196575

Imb = 1


Cmb = 1


NewDeltaT = 11

ExecutionTime = 101.92 s  ClockTime = 142 s

Time = 264

Solving Pressure Equation
DICPCG:  Solving for po, Initial residual = 0.0058602, Final residual = 9.83978e-06, No Iterations 127
Solving Saturation Equation
diagonal:  Solving for sw, Initial residual = 0, Final residual = 0, No Iterations 0
Q_inj = 196575
Q_prod = 196575
qw_prod = -0
qo_prod = -196575

Imb = 1


Cmb = 1


NewDeltaT = 11

ExecutionTime = 106.47 s  ClockTime = 148 s

Time = 275

Solving Pressure Equation
DICPCG:  Solving for po, Initial residual = 0.00557717, Final residual = 9.83495e-06, No Iterations 133
Solving Saturation Equation
diagonal:  Solving for sw, Initial residual = 0, Final residual = 0, No Iterations 0
Q_inj = 196575
Q_prod = 196575
qw_prod = -0
qo_prod = -196575

Imb = 1


Cmb = 1


NewDeltaT = 11

ExecutionTime = 110.43 s  ClockTime = 153 s

Time = 286

Solving Pressure Equation
DICPCG:  Solving for po, Initial residual = 0.00535375, Final residual = 9.56302e-06, No Iterations 134
Solving Saturation Equation
diagonal:  Solving for sw, Initial residual = 0, Final residual = 0, No Iterations 0
Q_inj = 196575
Q_prod = 196575
qw_prod = -0
qo_prod = -196575

Imb = 1


Cmb = 1


NewDeltaT = 11

ExecutionTime = 114.48 s  ClockTime = 160 s

Time = 297

Solving Pressure Equation
DICPCG:  Solving for po, Initial residual = 0.00515746, Final residual = 9.78051e-06, No Iterations 134
Solving Saturation Equation
diagonal:  Solving for sw, Initial residual = 0, Final residual = 0, No Iterations 0
Q_inj = 196575
Q_prod = 196575
qw_prod = -0
qo_prod = -196575

Imb = 1


Cmb = 1


NewDeltaT = 11

ExecutionTime = 119.38 s  ClockTime = 171 s

Time = 308

Solving Pressure Equation
DICPCG:  Solving for po, Initial residual = 0.00500977, Final residual = 9.8172e-06, No Iterations 135
Solving Saturation Equation
diagonal:  Solving for sw, Initial residual = 0, Final residual = 0, No Iterations 0
Q_inj = 196575
Q_prod = 196575
qw_prod = -0
qo_prod = -196575

Imb = 1


Cmb = 1


NewDeltaT = 11

ExecutionTime = 123.95 s  ClockTime = 179 s

Time = 319

Solving Pressure Equation
DICPCG:  Solving for po, Initial residual = 0.00486566, Final residual = 9.92556e-06, No Iterations 135
Solving Saturation Equation
diagonal:  Solving for sw, Initial residual = 0, Final residual = 0, No Iterations 0
Q_inj = 196575
Q_prod = 196575
qw_prod = -0
qo_prod = -196575

Imb = 1


Cmb = 1


NewDeltaT = 11

ExecutionTime = 128.6 s  ClockTime = 187 s

Time = 330

Solving Pressure Equation
DICPCG:  Solving for po, Initial residual = 0.00471881, Final residual = 9.66408e-06, No Iterations 138
Solving Saturation Equation
diagonal:  Solving for sw, Initial residual = 0, Final residual = 0, No Iterations 0
Q_inj = 196575
Q_prod = 196575
qw_prod = -0
qo_prod = -196575

Imb = 1


Cmb = 1


NewDeltaT = 11

ExecutionTime = 132.57 s  ClockTime = 193 s

Time = 341

Solving Pressure Equation
DICPCG:  Solving for po, Initial residual = 0.00457877, Final residual = 9.9618e-06, No Iterations 141
Solving Saturation Equation
diagonal:  Solving for sw, Initial residual = 0, Final residual = 0, No Iterations 0
Q_inj = 196575
Q_prod = 196575
qw_prod = -0
qo_prod = -196575

Imb = 1


Cmb = 1


NewDeltaT = 11

ExecutionTime = 137.97 s  ClockTime = 207 s

Time = 352

Solving Pressure Equation
DICPCG:  Solving for po, Initial residual = 0.00444131, Final residual = 9.97907e-06, No Iterations 138
Solving Saturation Equation
diagonal:  Solving for sw, Initial residual = 0, Final residual = 0, No Iterations 0
Q_inj = 196575
Q_prod = 196575
qw_prod = -0
qo_prod = -196575

Imb = 1


Cmb = 1


NewDeltaT = 11

ExecutionTime = 141.66 s  ClockTime = 212 s

Time = 363

Solving Pressure Equation
DICPCG:  Solving for po, Initial residual = 0.00430746, Final residual = 9.77279e-06, No Iterations 142
Solving Saturation Equation
diagonal:  Solving for sw, Initial residual = 0, Final residual = 0, No Iterations 0
Q_inj = 196575
Q_prod = 196575
qw_prod = -0
qo_prod = -196575

Imb = 1


Cmb = 1


NewDeltaT = 11

ExecutionTime = 145.66 s  ClockTime = 218 s

Time = 374

Solving Pressure Equation
DICPCG:  Solving for po, Initial residual = 0.00417042, Final residual = 9.87513e-06, No Iterations 141
Solving Saturation Equation
diagonal:  Solving for sw, Initial residual = 0, Final residual = 0, No Iterations 0
Q_inj = 196575
Q_prod = 196575
qw_prod = -0
qo_prod = -196575

Imb = 1


Cmb = 1


NewDeltaT = 11

ExecutionTime = 150.29 s  ClockTime = 224 s

Time = 385

Solving Pressure Equation
DICPCG:  Solving for po, Initial residual = 0.00403957, Final residual = 9.91007e-06, No Iterations 142
Solving Saturation Equation
diagonal:  Solving for sw, Initial residual = 0, Final residual = 0, No Iterations 0
Q_inj = 196575
Q_prod = 196575
qw_prod = -0
qo_prod = -196575

Imb = 1


Cmb = 1


NewDeltaT = 11

ExecutionTime = 154.15 s  ClockTime = 229 s

Time = 396

Solving Pressure Equation
DICPCG:  Solving for po, Initial residual = 0.00392091, Final residual = 9.78018e-06, No Iterations 141
Solving Saturation Equation
diagonal:  Solving for sw, Initial residual = 0, Final residual = 0, No Iterations 0
Q_inj = 196575
Q_prod = 196575
qw_prod = -0
qo_prod = -196575

Imb = 1


Cmb = 1


NewDeltaT = 11

ExecutionTime = 157.91 s  ClockTime = 234 s

Time = 407

Solving Pressure Equation
DICPCG:  Solving for po, Initial residual = 0.00382193, Final residual = 9.90411e-06, No Iterations 142
Solving Saturation Equation
diagonal:  Solving for sw, Initial residual = 0, Final residual = 0, No Iterations 0
Q_inj = 196575
Q_prod = 196575
qw_prod = -0
qo_prod = -196575

Imb = 1


Cmb = 1


NewDeltaT = 11

ExecutionTime = 162.1 s  ClockTime = 239 s

Time = 418

Solving Pressure Equation
DICPCG:  Solving for po, Initial residual = 0.00374273, Final residual = 9.94053e-06, No Iterations 141
Solving Saturation Equation
diagonal:  Solving for sw, Initial residual = 0, Final residual = 0, No Iterations 0
Q_inj = 196575
Q_prod = 196575
qw_prod = -0
qo_prod = -196575

Imb = 1


Cmb = 1


NewDeltaT = 11

ExecutionTime = 166.69 s  ClockTime = 245 s

Time = 429

Solving Pressure Equation
DICPCG:  Solving for po, Initial residual = 0.00366172, Final residual = 9.94901e-06, No Iterations 141
Solving Saturation Equation
diagonal:  Solving for sw, Initial residual = 0, Final residual = 0, No Iterations 0
Q_inj = 196575
Q_prod = 196575
qw_prod = -0
qo_prod = -196575

Imb = 1


Cmb = 1


NewDeltaT = 11

ExecutionTime = 171.52 s  ClockTime = 251 s

Time = 440

Solving Pressure Equation
DICPCG:  Solving for po, Initial residual = 0.00357843, Final residual = 9.94357e-06, No Iterations 142
Solving Saturation Equation
diagonal:  Solving for sw, Initial residual = 0, Final residual = 0, No Iterations 0
Q_inj = 196575
Q_prod = 196575
qw_prod = -0
qo_prod = -196575

Imb = 1


Cmb = 1


NewDeltaT = 11

ExecutionTime = 177.14 s  ClockTime = 262 s

Time = 451

Solving Pressure Equation
DICPCG:  Solving for po, Initial residual = 0.00351258, Final residual = 9.8568e-06, No Iterations 141
Solving Saturation Equation
diagonal:  Solving for sw, Initial residual = 0, Final residual = 0, No Iterations 0
Q_inj = 196575
Q_prod = 196575
qw_prod = -0
qo_prod = -196575

Imb = 1


Cmb = 1


NewDeltaT = 11

ExecutionTime = 182.38 s  ClockTime = 268 s

Time = 462

Solving Pressure Equation
DICPCG:  Solving for po, Initial residual = 0.00344144, Final residual = 9.95417e-06, No Iterations 141
Solving Saturation Equation
diagonal:  Solving for sw, Initial residual = 0, Final residual = 0, No Iterations 0
Q_inj = 196575
Q_prod = 196575
qw_prod = -0
qo_prod = -196575

Imb = 1


Cmb = 1


NewDeltaT = 11

ExecutionTime = 188 s  ClockTime = 274 s

Time = 473

Solving Pressure Equation
DICPCG:  Solving for po, Initial residual = 0.00336038, Final residual = 9.74791e-06, No Iterations 141
Solving Saturation Equation
diagonal:  Solving for sw, Initial residual = 0, Final residual = 0, No Iterations 0
Q_inj = 196575
Q_prod = 196575
qw_prod = -0
qo_prod = -196575

Imb = 1


Cmb = 1


NewDeltaT = 11

ExecutionTime = 193.46 s  ClockTime = 280 s

Time = 484

Solving Pressure Equation
DICPCG:  Solving for po, Initial residual = 0.00328089, Final residual = 9.88998e-06, No Iterations 141
Solving Saturation Equation
diagonal:  Solving for sw, Initial residual = 0, Final residual = 0, No Iterations 0
Q_inj = 196575
Q_prod = 196575
qw_prod = -0
qo_prod = -196575

Imb = 1


Cmb = 1


NewDeltaT = 11

ExecutionTime = 199.37 s  ClockTime = 287 s

Time = 495

Solving Pressure Equation
DICPCG:  Solving for po, Initial residual = 0.00320122, Final residual = 9.78502e-06, No Iterations 141
Solving Saturation Equation
diagonal:  Solving for sw, Initial residual = 0, Final residual = 0, No Iterations 0
Q_inj = 196575
Q_prod = 196575
qw_prod = -0
qo_prod = -196575

Imb = 1


Cmb = 1


NewDeltaT = 11

ExecutionTime = 205.36 s  ClockTime = 293 s

Time = 506

Solving Pressure Equation
DICPCG:  Solving for po, Initial residual = 0.00313013, Final residual = 9.88836e-06, No Iterations 141
Solving Saturation Equation
diagonal:  Solving for sw, Initial residual = 0, Final residual = 0, No Iterations 0
Q_inj = 196575
Q_prod = 196575
qw_prod = -0
qo_prod = -196575

Imb = 1


Cmb = 1


NewDeltaT = 11

ExecutionTime = 212.33 s  ClockTime = 301 s

Time = 517

Solving Pressure Equation
DICPCG:  Solving for po, Initial residual = 0.00306683, Final residual = 9.6092e-06, No Iterations 141
Solving Saturation Equation
diagonal:  Solving for sw, Initial residual = 0, Final residual = 0, No Iterations 0
Q_inj = 196575
Q_prod = 196575
qw_prod = -0
qo_prod = -196575

Imb = 1


Cmb = 1


NewDeltaT = 11

ExecutionTime = 218.56 s  ClockTime = 308 s

Time = 528

Solving Pressure Equation
DICPCG:  Solving for po, Initial residual = 0.00301059, Final residual = 9.78923e-06, No Iterations 141
Solving Saturation Equation
diagonal:  Solving for sw, Initial residual = 0, Final residual = 0, No Iterations 0
Q_inj = 196575
Q_prod = 196575
qw_prod = -0
qo_prod = -196575

Imb = 1


Cmb = 1


NewDeltaT = 11

ExecutionTime = 224.01 s  ClockTime = 314 s

Time = 539

Solving Pressure Equation
DICPCG:  Solving for po, Initial residual = 0.0029551, Final residual = 9.48783e-06, No Iterations 141
Solving Saturation Equation
diagonal:  Solving for sw, Initial residual = 0, Final residual = 0, No Iterations 0
Q_inj = 196575
Q_prod = 196575
qw_prod = -0
qo_prod = -196575

Imb = 1


Cmb = 1


NewDeltaT = 11

ExecutionTime = 229.09 s  ClockTime = 319 s

Time = 550

Solving Pressure Equation
DICPCG:  Solving for po, Initial residual = 0.00290188, Final residual = 9.83422e-06, No Iterations 141
Solving Saturation Equation
diagonal:  Solving for sw, Initial residual = 0, Final residual = 0, No Iterations 0
Q_inj = 196575
Q_prod = 196575
qw_prod = -0
qo_prod = -196575

Imb = 1


Cmb = 1


NewDeltaT = 11

ExecutionTime = 234.44 s  ClockTime = 325 s

Time = 561

Solving Pressure Equation
DICPCG:  Solving for po, Initial residual = 0.00284821, Final residual = 9.80057e-06, No Iterations 141
Solving Saturation Equation
diagonal:  Solving for sw, Initial residual = 0, Final residual = 0, No Iterations 0
Q_inj = 196575
Q_prod = 196575
qw_prod = -0
qo_prod = -196575

Imb = 1


Cmb = 1


NewDeltaT = 11

ExecutionTime = 239.28 s  ClockTime = 331 s

Time = 572

Solving Pressure Equation
DICPCG:  Solving for po, Initial residual = 0.00280541, Final residual = 9.8363e-06, No Iterations 141
Solving Saturation Equation
diagonal:  Solving for sw, Initial residual = 0, Final residual = 0, No Iterations 0
Q_inj = 196575
Q_prod = 196575
qw_prod = -0
qo_prod = -196575

Imb = 1


Cmb = 1


NewDeltaT = 11

ExecutionTime = 245.51 s  ClockTime = 338 s

Time = 583

Solving Pressure Equation
DICPCG:  Solving for po, Initial residual = 0.00276175, Final residual = 9.50264e-06, No Iterations 141
Solving Saturation Equation
diagonal:  Solving for sw, Initial residual = 0, Final residual = 0, No Iterations 0
Q_inj = 196575
Q_prod = 196575
qw_prod = -0
qo_prod = -196575

Imb = 1


Cmb = 1


NewDeltaT = 11

ExecutionTime = 250.47 s  ClockTime = 343 s

Time = 594

Solving Pressure Equation
DICPCG:  Solving for po, Initial residual = 0.00271806, Final residual = 9.9082e-06, No Iterations 141
Solving Saturation Equation
diagonal:  Solving for sw, Initial residual = 0, Final residual = 0, No Iterations 0
Q_inj = 196575
Q_prod = 196575
qw_prod = -0
qo_prod = -196575

Imb = 1


Cmb = 1


NewDeltaT = 11

ExecutionTime = 256.57 s  ClockTime = 350 s

Time = 605

Solving Pressure Equation
DICPCG:  Solving for po, Initial residual = 0.00266957, Final residual = 9.89401e-06, No Iterations 141
Solving Saturation Equation
diagonal:  Solving for sw, Initial residual = 0, Final residual = 0, No Iterations 0
Q_inj = 196575
Q_prod = 196575
qw_prod = -0
qo_prod = -196575

Imb = 1


Cmb = 1


NewDeltaT = 11

ExecutionTime = 261.86 s  ClockTime = 356 s

Time = 616

Solving Pressure Equation
DICPCG:  Solving for po, Initial residual = 0.00262245, Final residual = 9.9069e-06, No Iterations 141
Solving Saturation Equation
diagonal:  Solving for sw, Initial residual = 0, Final residual = 0, No Iterations 0
Q_inj = 196575
Q_prod = 196575
qw_prod = -0
qo_prod = -196575

Imb = 1


Cmb = 1


NewDeltaT = 11

ExecutionTime = 267.94 s  ClockTime = 362 s

Time = 627

Solving Pressure Equation
DICPCG:  Solving for po, Initial residual = 0.00258022, Final residual = 9.85318e-06, No Iterations 141
Solving Saturation Equation
diagonal:  Solving for sw, Initial residual = 0, Final residual = 0, No Iterations 0
Q_inj = 196575
Q_prod = 196575
qw_prod = -0
qo_prod = -196575

Imb = 1


Cmb = 1


NewDeltaT = 11

ExecutionTime = 273.03 s  ClockTime = 368 s

Time = 638

Solving Pressure Equation
DICPCG:  Solving for po, Initial residual = 0.0025425, Final residual = 9.90581e-06, No Iterations 141
Solving Saturation Equation
diagonal:  Solving for sw, Initial residual = 0, Final residual = 0, No Iterations 0
Q_inj = 196575
Q_prod = 196575
qw_prod = -0
qo_prod = -196575

Imb = 1


Cmb = 1


NewDeltaT = 11

ExecutionTime = 278.04 s  ClockTime = 374 s

Time = 649

Solving Pressure Equation
DICPCG:  Solving for po, Initial residual = 0.00250355, Final residual = 9.76561e-06, No Iterations 141
Solving Saturation Equation
diagonal:  Solving for sw, Initial residual = 0, Final residual = 0, No Iterations 0
Q_inj = 196575
Q_prod = 196575
qw_prod = -0
qo_prod = -196575

Imb = 1


Cmb = 1


NewDeltaT = 11

ExecutionTime = 284.42 s  ClockTime = 381 s

Time = 660

Solving Pressure Equation
DICPCG:  Solving for po, Initial residual = 0.00246499, Final residual = 9.84057e-06, No Iterations 141
Solving Saturation Equation
diagonal:  Solving for sw, Initial residual = 0, Final residual = 0, No Iterations 0
Q_inj = 196575
Q_prod = 196575
qw_prod = -0
qo_prod = -196575

Imb = 1


Cmb = 1


NewDeltaT = 11

ExecutionTime = 290.33 s  ClockTime = 387 s

Time = 671

Solving Pressure Equation
DICPCG:  Solving for po, Initial residual = 0.00242642, Final residual = 9.95277e-06, No Iterations 140
Solving Saturation Equation
diagonal:  Solving for sw, Initial residual = 0, Final residual = 0, No Iterations 0
Q_inj = 196575
Q_prod = 196575
qw_prod = -0
qo_prod = -196575

Imb = 1


Cmb = 1


NewDeltaT = 11

ExecutionTime = 296.1 s  ClockTime = 393 s

Time = 682

Solving Pressure Equation
DICPCG:  Solving for po, Initial residual = 0.00238963, Final residual = 9.83364e-06, No Iterations 141
Solving Saturation Equation
diagonal:  Solving for sw, Initial residual = 0, Final residual = 0, No Iterations 0
Q_inj = 196575
Q_prod = 196575
qw_prod = -0
qo_prod = -196575

Imb = 1


Cmb = 1


NewDeltaT = 11

ExecutionTime = 302.31 s  ClockTime = 400 s

Time = 693

Solving Pressure Equation
DICPCG:  Solving for po, Initial residual = 0.0023547, Final residual = 9.69276e-06, No Iterations 141
Solving Saturation Equation
diagonal:  Solving for sw, Initial residual = 0, Final residual = 0, No Iterations 0
Q_inj = 196575
Q_prod = 196575
qw_prod = -0
qo_prod = -196575

Imb = 1


Cmb = 1


NewDeltaT = 11

ExecutionTime = 307.66 s  ClockTime = 406 s

Time = 704

Solving Pressure Equation
DICPCG:  Solving for po, Initial residual = 0.0023198, Final residual = 9.83632e-06, No Iterations 141
Solving Saturation Equation
diagonal:  Solving for sw, Initial residual = 0, Final residual = 0, No Iterations 0
Q_inj = 196575
Q_prod = 196575
qw_prod = -0
qo_prod = -196575

Imb = 1


Cmb = 1


NewDeltaT = 11

ExecutionTime = 314.74 s  ClockTime = 414 s

Time = 715

Solving Pressure Equation
DICPCG:  Solving for po, Initial residual = 0.0022871, Final residual = 9.8745e-06, No Iterations 137
Solving Saturation Equation
diagonal:  Solving for sw, Initial residual = 0, Final residual = 0, No Iterations 0
Q_inj = 196575
Q_prod = 196575
qw_prod = -0
qo_prod = -196575

Imb = 1


Cmb = 1


NewDeltaT = 11

ExecutionTime = 321.06 s  ClockTime = 421 s

Time = 726

Solving Pressure Equation
DICPCG:  Solving for po, Initial residual = 0.00225897, Final residual = 9.80992e-06, No Iterations 141
Solving Saturation Equation
diagonal:  Solving for sw, Initial residual = 0, Final residual = 0, No Iterations 0
Q_inj = 196575
Q_prod = 196575
qw_prod = -0
qo_prod = -196575

Imb = 1


Cmb = 1


NewDeltaT = 11

ExecutionTime = 326.8 s  ClockTime = 427 s

Time = 737

Solving Pressure Equation
DICPCG:  Solving for po, Initial residual = 0.00222986, Final residual = 9.65981e-06, No Iterations 141
Solving Saturation Equation
diagonal:  Solving for sw, Initial residual = 0, Final residual = 0, No Iterations 0
Q_inj = 196575
Q_prod = 196575
qw_prod = -0
qo_prod = -196575

Imb = 1


Cmb = 1


NewDeltaT = 11

ExecutionTime = 333.94 s  ClockTime = 435 s

Time = 748

Solving Pressure Equation
DICPCG:  Solving for po, Initial residual = 0.0022006, Final residual = 9.90627e-06, No Iterations 141
Solving Saturation Equation
diagonal:  Solving for sw, Initial residual = 0, Final residual = 0, No Iterations 0
Q_inj = 196575
Q_prod = 196575
qw_prod = -0
qo_prod = -196575

Imb = 1


Cmb = 1


NewDeltaT = 11

ExecutionTime = 340.58 s  ClockTime = 442 s

Time = 759

Solving Pressure Equation
DICPCG:  Solving for po, Initial residual = 0.00217144, Final residual = 9.88144e-06, No Iterations 141
Solving Saturation Equation
diagonal:  Solving for sw, Initial residual = 0, Final residual = 0, No Iterations 0
Q_inj = 196575
Q_prod = 196575
qw_prod = -0
qo_prod = -196575

Imb = 1


Cmb = 1


NewDeltaT = 11

ExecutionTime = 345.91 s  ClockTime = 448 s

Time = 770

Solving Pressure Equation
DICPCG:  Solving for po, Initial residual = 0.00214703, Final residual = 9.83717e-06, No Iterations 137
Solving Saturation Equation
diagonal:  Solving for sw, Initial residual = 0, Final residual = 0, No Iterations 0
Q_inj = 196575
Q_prod = 196575
qw_prod = -0
qo_prod = -196575

Imb = 1


Cmb = 1


NewDeltaT = 11

ExecutionTime = 352.83 s  ClockTime = 456 s

Time = 781

Solving Pressure Equation
DICPCG:  Solving for po, Initial residual = 0.00212124, Final residual = 9.88865e-06, No Iterations 141
Solving Saturation Equation
diagonal:  Solving for sw, Initial residual = 0, Final residual = 0, No Iterations 0
Q_inj = 196575
Q_prod = 196575
qw_prod = -0
qo_prod = -196575

Imb = 1


Cmb = 1


NewDeltaT = 11

ExecutionTime = 358.98 s  ClockTime = 462 s

Time = 792

Solving Pressure Equation
DICPCG:  Solving for po, Initial residual = 0.0020957, Final residual = 9.977e-06, No Iterations 141
Solving Saturation Equation
diagonal:  Solving for sw, Initial residual = 0, Final residual = 0, No Iterations 0
Q_inj = 196575
Q_prod = 196575
qw_prod = -0
qo_prod = -196575

Imb = 1


Cmb = 1


NewDeltaT = 11

ExecutionTime = 364.54 s  ClockTime = 468 s

Time = 803

Solving Pressure Equation
DICPCG:  Solving for po, Initial residual = 0.00206906, Final residual = 9.97025e-06, No Iterations 140
Solving Saturation Equation
diagonal:  Solving for sw, Initial residual = 0, Final residual = 0, No Iterations 0
Q_inj = 196575
Q_prod = 196575
qw_prod = -0
qo_prod = -196575

Imb = 1


Cmb = 1


NewDeltaT = 11

ExecutionTime = 370.63 s  ClockTime = 475 s

Time = 814

Solving Pressure Equation
DICPCG:  Solving for po, Initial residual = 0.00204203, Final residual = 9.92332e-06, No Iterations 141
Solving Saturation Equation
diagonal:  Solving for sw, Initial residual = 0, Final residual = 0, No Iterations 0
Q_inj = 196575
Q_prod = 196575
qw_prod = -0
qo_prod = -196575

Imb = 1


Cmb = 1


NewDeltaT = 11

ExecutionTime = 376.66 s  ClockTime = 482 s

Time = 825

Solving Pressure Equation
DICPCG:  Solving for po, Initial residual = 0.00201524, Final residual = 9.55151e-06, No Iterations 141
Solving Saturation Equation
diagonal:  Solving for sw, Initial residual = 0, Final residual = 0, No Iterations 0
Q_inj = 196575
Q_prod = 196575
qw_prod = -0
qo_prod = -196575

Imb = 1


Cmb = 1


NewDeltaT = 11

ExecutionTime = 382.93 s  ClockTime = 489 s

Time = 836

Solving Pressure Equation
DICPCG:  Solving for po, Initial residual = 0.00199014, Final residual = 9.92214e-06, No Iterations 141
Solving Saturation Equation
diagonal:  Solving for sw, Initial residual = 0, Final residual = 0, No Iterations 0
Q_inj = 196575
Q_prod = 196575
qw_prod = -0
qo_prod = -196575

Imb = 1


Cmb = 1


NewDeltaT = 11

ExecutionTime = 387.98 s  ClockTime = 494 s

Time = 847

Solving Pressure Equation
DICPCG:  Solving for po, Initial residual = 0.00196602, Final residual = 9.86424e-06, No Iterations 141
Solving Saturation Equation
diagonal:  Solving for sw, Initial residual = 0, Final residual = 0, No Iterations 0
Q_inj = 196575
Q_prod = 196575
qw_prod = -0
qo_prod = -196575

Imb = 1


Cmb = 1


NewDeltaT = 11

ExecutionTime = 394.22 s  ClockTime = 501 s

Time = 858

Solving Pressure Equation
DICPCG:  Solving for po, Initial residual = 0.00194678, Final residual = 9.93339e-06, No Iterations 141
Solving Saturation Equation
diagonal:  Solving for sw, Initial residual = 0, Final residual = 0, No Iterations 0
Q_inj = 196575
Q_prod = 196575
qw_prod = -0
qo_prod = -196575

Imb = 1


Cmb = 1


NewDeltaT = 11

ExecutionTime = 399.29 s  ClockTime = 507 s

Time = 869

Solving Pressure Equation
DICPCG:  Solving for po, Initial residual = 0.00192778, Final residual = 9.92029e-06, No Iterations 141
Solving Saturation Equation
diagonal:  Solving for sw, Initial residual = 0, Final residual = 0, No Iterations 0
Q_inj = 196575
Q_prod = 196575
qw_prod = -0
qo_prod = -196575

Imb = 1


Cmb = 1


NewDeltaT = 11

ExecutionTime = 404.04 s  ClockTime = 512 s

Time = 880

Solving Pressure Equation
DICPCG:  Solving for po, Initial residual = 0.00190875, Final residual = 9.90671e-06, No Iterations 141
Solving Saturation Equation
diagonal:  Solving for sw, Initial residual = 0, Final residual = 0, No Iterations 0
Q_inj = 196575
Q_prod = 196575
qw_prod = -0
qo_prod = -196575

Imb = 1


Cmb = 1


NewDeltaT = 11

ExecutionTime = 409.93 s  ClockTime = 519 s

Time = 891

Solving Pressure Equation
DICPCG:  Solving for po, Initial residual = 0.0018884, Final residual = 9.91831e-06, No Iterations 141
Solving Saturation Equation
diagonal:  Solving for sw, Initial residual = 0, Final residual = 0, No Iterations 0
Q_inj = 196575
Q_prod = 196575
qw_prod = -0
qo_prod = -196575

Imb = 1


Cmb = 1


NewDeltaT = 11

ExecutionTime = 415.19 s  ClockTime = 524 s

Time = 902

Solving Pressure Equation
DICPCG:  Solving for po, Initial residual = 0.00186788, Final residual = 9.93489e-06, No Iterations 141
Solving Saturation Equation
diagonal:  Solving for sw, Initial residual = 0, Final residual = 0, No Iterations 0
Q_inj = 196575
Q_prod = 196575
qw_prod = -0
qo_prod = -196575

Imb = 1


Cmb = 1


NewDeltaT = 11

ExecutionTime = 421.79 s  ClockTime = 531 s

Time = 913

Solving Pressure Equation
DICPCG:  Solving for po, Initial residual = 0.00184743, Final residual = 9.94797e-06, No Iterations 141
Solving Saturation Equation
diagonal:  Solving for sw, Initial residual = 0, Final residual = 0, No Iterations 0
Q_inj = 196575
Q_prod = 196575
qw_prod = -0
qo_prod = -196575

Imb = 1


Cmb = 1


NewDeltaT = 11

ExecutionTime = 428.33 s  ClockTime = 539 s

Time = 924

Solving Pressure Equation
DICPCG:  Solving for po, Initial residual = 0.00182715, Final residual = 9.94673e-06, No Iterations 141
Solving Saturation Equation
diagonal:  Solving for sw, Initial residual = 0, Final residual = 0, No Iterations 0
Q_inj = 196575
Q_prod = 196575
qw_prod = -0
qo_prod = -196575

Imb = 1


Cmb = 1


NewDeltaT = 11

ExecutionTime = 433.92 s  ClockTime = 545 s

Time = 935

Solving Pressure Equation
DICPCG:  Solving for po, Initial residual = 0.00180797, Final residual = 9.65578e-06, No Iterations 140
Solving Saturation Equation
diagonal:  Solving for sw, Initial residual = 0, Final residual = 0, No Iterations 0
Q_inj = 196575
Q_prod = 196575
qw_prod = -0
qo_prod = -196575

Imb = 1


Cmb = 1


NewDeltaT = 11

ExecutionTime = 440.6 s  ClockTime = 552 s

Time = 946

Solving Pressure Equation
DICPCG:  Solving for po, Initial residual = 0.00178909, Final residual = 9.98451e-06, No Iterations 141
Solving Saturation Equation
diagonal:  Solving for sw, Initial residual = 0, Final residual = 0, No Iterations 0
Q_inj = 196575
Q_prod = 196575
qw_prod = -0
qo_prod = -196575

Imb = 1


Cmb = 1


NewDeltaT = 11

ExecutionTime = 445.88 s  ClockTime = 558 s

Time = 957

Solving Pressure Equation
DICPCG:  Solving for po, Initial residual = 0.00176939, Final residual = 9.78341e-06, No Iterations 140
Solving Saturation Equation
diagonal:  Solving for sw, Initial residual = 0, Final residual = 0, No Iterations 0
Q_inj = 196575
Q_prod = 196575
qw_prod = -0
qo_prod = -196575

Imb = 1


Cmb = 1


NewDeltaT = 11

ExecutionTime = 451.54 s  ClockTime = 565 s

Time = 968

Solving Pressure Equation
DICPCG:  Solving for po, Initial residual = 0.00174942, Final residual = 9.98509e-06, No Iterations 141
Solving Saturation Equation
diagonal:  Solving for sw, Initial residual = 0, Final residual = 0, No Iterations 0
Q_inj = 196575
Q_prod = 196575
qw_prod = -0
qo_prod = -196575

Imb = 1


Cmb = 1


NewDeltaT = 11

ExecutionTime = 456.46 s  ClockTime = 570 s

Time = 979

Solving Pressure Equation
DICPCG:  Solving for po, Initial residual = 0.00173223, Final residual = 9.87532e-06, No Iterations 140
Solving Saturation Equation
diagonal:  Solving for sw, Initial residual = 0, Final residual = 0, No Iterations 0
Q_inj = 196575
Q_prod = 196575
qw_prod = -0
qo_prod = -196575

Imb = 1


Cmb = 1


NewDeltaT = 11

ExecutionTime = 462.56 s  ClockTime = 577 s

Time = 990

Solving Pressure Equation
DICPCG:  Solving for po, Initial residual = 0.00171445, Final residual = 9.8902e-06, No Iterations 143
Solving Saturation Equation
diagonal:  Solving for sw, Initial residual = 0, Final residual = 0, No Iterations 0
Q_inj = 196575
Q_prod = 196575
qw_prod = -0
qo_prod = -196575

Imb = 1


Cmb = 1


NewDeltaT = 11

ExecutionTime = 467.56 s  ClockTime = 582 s

Time = 1001

Solving Pressure Equation
DICPCG:  Solving for po, Initial residual = 0.00169714, Final residual = 9.92922e-06, No Iterations 143
Solving Saturation Equation
diagonal:  Solving for sw, Initial residual = 0, Final residual = 0, No Iterations 0
Q_inj = 196575
Q_prod = 196575
qw_prod = -0
qo_prod = -196575

Imb = 1


Cmb = 1


NewDeltaT = 11

ExecutionTime = 473.72 s  ClockTime = 589 s

Time = 1012

Solving Pressure Equation
DICPCG:  Solving for po, Initial residual = 0.00168347, Final residual = 9.74363e-06, No Iterations 143
Solving Saturation Equation
diagonal:  Solving for sw, Initial residual = 0, Final residual = 0, No Iterations 0
Q_inj = 196575
Q_prod = 196575
qw_prod = -0
qo_prod = -196575

Imb = 1


Cmb = 1


NewDeltaT = 11

ExecutionTime = 479.69 s  ClockTime = 595 s

Time = 1023

Solving Pressure Equation
DICPCG:  Solving for po, Initial residual = 0.00167082, Final residual = 9.96731e-06, No Iterations 141
Solving Saturation Equation
diagonal:  Solving for sw, Initial residual = 0, Final residual = 0, No Iterations 0
Q_inj = 196575
Q_prod = 196575
qw_prod = -0
qo_prod = -196575

Imb = 1


Cmb = 1


NewDeltaT = 11

ExecutionTime = 485.19 s  ClockTime = 602 s

Time = 1034

Solving Pressure Equation
DICPCG:  Solving for po, Initial residual = 0.00165677, Final residual = 9.91508e-06, No Iterations 141
Solving Saturation Equation
diagonal:  Solving for sw, Initial residual = 0, Final residual = 0, No Iterations 0
Q_inj = 196575
Q_prod = 196575
qw_prod = -0
qo_prod = -196575

Imb = 1


Cmb = 1


NewDeltaT = 11

ExecutionTime = 490.3 s  ClockTime = 607 s

Time = 1045

Solving Pressure Equation
DICPCG:  Solving for po, Initial residual = 0.00164194, Final residual = 9.91595e-06, No Iterations 141
Solving Saturation Equation
diagonal:  Solving for sw, Initial residual = 0, Final residual = 0, No Iterations 0
Q_inj = 196575
Q_prod = 196575
qw_prod = -0
qo_prod = -196575

Imb = 1


Cmb = 1


NewDeltaT = 11

ExecutionTime = 496.3 s  ClockTime = 614 s

Time = 1056

Solving Pressure Equation
DICPCG:  Solving for po, Initial residual = 0.00162661, Final residual = 9.9181e-06, No Iterations 141
Solving Saturation Equation
diagonal:  Solving for sw, Initial residual = 0, Final residual = 0, No Iterations 0
Q_inj = 196575
Q_prod = 196575
qw_prod = -0
qo_prod = -196575

Imb = 1


Cmb = 1


NewDeltaT = 11

ExecutionTime = 501.41 s  ClockTime = 619 s

Time = 1067

Solving Pressure Equation
DICPCG:  Solving for po, Initial residual = 0.00161266, Final residual = 9.94917e-06, No Iterations 141
Solving Saturation Equation
diagonal:  Solving for sw, Initial residual = 0, Final residual = 0, No Iterations 0
Q_inj = 196575
Q_prod = 196575
qw_prod = -0
qo_prod = -196575

Imb = 1


Cmb = 1


NewDeltaT = 11

ExecutionTime = 507.35 s  ClockTime = 626 s

Time = 1078

Solving Pressure Equation
DICPCG:  Solving for po, Initial residual = 0.00159901, Final residual = 9.98702e-06, No Iterations 141
Solving Saturation Equation
diagonal:  Solving for sw, Initial residual = 0, Final residual = 0, No Iterations 0
Q_inj = 196575
Q_prod = 196575
qw_prod = -0
qo_prod = -196575

Imb = 1


Cmb = 1


NewDeltaT = 11

ExecutionTime = 513.39 s  ClockTime = 632 s

Time = 1089

Solving Pressure Equation
DICPCG:  Solving for po, Initial residual = 0.0015849, Final residual = 9.9792e-06, No Iterations 143
Solving Saturation Equation
diagonal:  Solving for sw, Initial residual = 0, Final residual = 0, No Iterations 0
Q_inj = 196575
Q_prod = 196575
qw_prod = -0
qo_prod = -196575

Imb = 1


Cmb = 1


NewDeltaT = 11

ExecutionTime = 520.17 s  ClockTime = 640 s

Time = 1100

Solving Pressure Equation
DICPCG:  Solving for po, Initial residual = 0.00157061, Final residual = 9.93232e-06, No Iterations 140
Solving Saturation Equation
diagonal:  Solving for sw, Initial residual = 0, Final residual = 0, No Iterations 0
Q_inj = 196575
Q_prod = 196575
qw_prod = -0
qo_prod = -196575

Imb = 1


Cmb = 1


NewDeltaT = 11

ExecutionTime = 525.23 s  ClockTime = 645 s

Time = 1111

Solving Pressure Equation
DICPCG:  Solving for po, Initial residual = 0.00155642, Final residual = 9.80969e-06, No Iterations 143
Solving Saturation Equation
diagonal:  Solving for sw, Initial residual = 0, Final residual = 0, No Iterations 0
Q_inj = 196575
Q_prod = 196575
qw_prod = -0
qo_prod = -196575

Imb = 1


Cmb = 1


NewDeltaT = 11

ExecutionTime = 531.97 s  ClockTime = 653 s

Time = 1122

Solving Pressure Equation
DICPCG:  Solving for po, Initial residual = 0.00154199, Final residual = 9.86111e-06, No Iterations 140
Solving Saturation Equation
diagonal:  Solving for sw, Initial residual = 0, Final residual = 0, No Iterations 0
Q_inj = 196575
Q_prod = 196575
qw_prod = -0
qo_prod = -196575

Imb = 1


Cmb = 1


NewDeltaT = 11

ExecutionTime = 537.08 s  ClockTime = 658 s

Time = 1133

Solving Pressure Equation
DICPCG:  Solving for po, Initial residual = 0.0015289, Final residual = 9.85935e-06, No Iterations 143
Solving Saturation Equation
diagonal:  Solving for sw, Initial residual = 0, Final residual = 0, No Iterations 0
Q_inj = 196575
Q_prod = 196575
qw_prod = -0
qo_prod = -196575

Imb = 1


Cmb = 1


NewDeltaT = 11

ExecutionTime = 542.82 s  ClockTime = 665 s

Time = 1144

Solving Pressure Equation
DICPCG:  Solving for po, Initial residual = 0.00151653, Final residual = 9.62584e-06, No Iterations 143
Solving Saturation Equation
diagonal:  Solving for sw, Initial residual = 0, Final residual = 0, No Iterations 0
Q_inj = 196575
Q_prod = 196575
qw_prod = -0
qo_prod = -196575

Imb = 1


Cmb = 1


NewDeltaT = 11

ExecutionTime = 547.51 s  ClockTime = 670 s

Time = 1155

Solving Pressure Equation
DICPCG:  Solving for po, Initial residual = 0.00150413, Final residual = 9.99707e-06, No Iterations 141
Solving Saturation Equation
diagonal:  Solving for sw, Initial residual = 0, Final residual = 0, No Iterations 0
Q_inj = 196575
Q_prod = 196575
qw_prod = -0
qo_prod = -196575

Imb = 1


Cmb = 1


NewDeltaT = 11

ExecutionTime = 553.95 s  ClockTime = 677 s

Time = 1166

Solving Pressure Equation
DICPCG:  Solving for po, Initial residual = 0.00149206, Final residual = 9.86814e-06, No Iterations 143
Solving Saturation Equation
diagonal:  Solving for sw, Initial residual = 0, Final residual = 0, No Iterations 0
Q_inj = 196575
Q_prod = 196575
qw_prod = -0
qo_prod = -196575

Imb = 1


Cmb = 1


NewDeltaT = 11

ExecutionTime = 559.79 s  ClockTime = 683 s

Time = 1177

Solving Pressure Equation
DICPCG:  Solving for po, Initial residual = 0.00147895, Final residual = 9.94313e-06, No Iterations 141
Solving Saturation Equation
diagonal:  Solving for sw, Initial residual = 0, Final residual = 0, No Iterations 0
Q_inj = 196575
Q_prod = 196575
qw_prod = -0
qo_prod = -196575

Imb = 1


Cmb = 1


NewDeltaT = 11

ExecutionTime = 566.58 s  ClockTime = 691 s

Time = 1188

Solving Pressure Equation
DICPCG:  Solving for po, Initial residual = 0.00146649, Final residual = 9.97667e-06, No Iterations 140
Solving Saturation Equation
diagonal:  Solving for sw, Initial residual = 0, Final residual = 0, No Iterations 0
Q_inj = 196575
Q_prod = 196575
qw_prod = -0
qo_prod = -196575

Imb = 1


Cmb = 1


NewDeltaT = 11

ExecutionTime = 573.44 s  ClockTime = 698 s

Time = 1199

Solving Pressure Equation
DICPCG:  Solving for po, Initial residual = 0.00145428, Final residual = 9.96574e-06, No Iterations 140
Solving Saturation Equation
diagonal:  Solving for sw, Initial residual = 0, Final residual = 0, No Iterations 0
Q_inj = 196575
Q_prod = 196575
qw_prod = -0
qo_prod = -196575

Imb = 1


Cmb = 1


NewDeltaT = 11

ExecutionTime = 578.95 s  ClockTime = 704 s

Time = 1210

Solving Pressure Equation
DICPCG:  Solving for po, Initial residual = 0.0014428, Final residual = 9.80216e-06, No Iterations 140
Solving Saturation Equation
diagonal:  Solving for sw, Initial residual = 0, Final residual = 0, No Iterations 0
Q_inj = 196575
Q_prod = 196575
qw_prod = -0
qo_prod = -196575

Imb = 1


Cmb = 1


NewDeltaT = 11

ExecutionTime = 585.38 s  ClockTime = 712 s

Time = 1221

Solving Pressure Equation
DICPCG:  Solving for po, Initial residual = 0.00143186, Final residual = 9.97828e-06, No Iterations 140
Solving Saturation Equation
diagonal:  Solving for sw, Initial residual = 0, Final residual = 0, No Iterations 0
Q_inj = 196575
Q_prod = 196575
qw_prod = -0
qo_prod = -196575

Imb = 1


Cmb = 1


NewDeltaT = 11

ExecutionTime = 592.03 s  ClockTime = 719 s

Time = 1232

Solving Pressure Equation
DICPCG:  Solving for po, Initial residual = 0.00142109, Final residual = 9.95208e-06, No Iterations 143
Solving Saturation Equation
diagonal:  Solving for sw, Initial residual = 0, Final residual = 0, No Iterations 0
Q_inj = 196575
Q_prod = 196575
qw_prod = -0
qo_prod = -196575

Imb = 1


Cmb = 1


NewDeltaT = 11

ExecutionTime = 597.77 s  ClockTime = 726 s

Time = 1243

Solving Pressure Equation
DICPCG:  Solving for po, Initial residual = 0.00141006, Final residual = 9.9101e-06, No Iterations 143
Solving Saturation Equation
diagonal:  Solving for sw, Initial residual = 0, Final residual = 0, No Iterations 0
Q_inj = 196575
Q_prod = 196575
qw_prod = -0
qo_prod = -196575

Imb = 1


Cmb = 1


NewDeltaT = 11

ExecutionTime = 603.93 s  ClockTime = 733 s

Time = 1254

Solving Pressure Equation
DICPCG:  Solving for po, Initial residual = 0.0013993, Final residual = 9.91894e-06, No Iterations 143
Solving Saturation Equation
diagonal:  Solving for sw, Initial residual = 0, Final residual = 0, No Iterations 0
Q_inj = 196575
Q_prod = 196575
qw_prod = -0
qo_prod = -196575

Imb = 1


Cmb = 1


NewDeltaT = 11

ExecutionTime = 609.55 s  ClockTime = 739 s

Time = 1265

Solving Pressure Equation
DICPCG:  Solving for po, Initial residual = 0.00138856, Final residual = 9.78782e-06, No Iterations 140
Solving Saturation Equation
diagonal:  Solving for sw, Initial residual = 0, Final residual = 0, No Iterations 0
Q_inj = 196575
Q_prod = 196575
qw_prod = -0
qo_prod = -196575

Imb = 1


Cmb = 1


NewDeltaT = 11

ExecutionTime = 615.07 s  ClockTime = 745 s

Time = 1276

Solving Pressure Equation
DICPCG:  Solving for po, Initial residual = 0.00137881, Final residual = 9.85495e-06, No Iterations 143
Solving Saturation Equation
diagonal:  Solving for sw, Initial residual = 0, Final residual = 0, No Iterations 0
Q_inj = 196575
Q_prod = 196575
qw_prod = -0
qo_prod = -196575

Imb = 1


Cmb = 1


NewDeltaT = 11

ExecutionTime = 620.14 s  ClockTime = 751 s

Time = 1287

Solving Pressure Equation
DICPCG:  Solving for po, Initial residual = 0.00136995, Final residual = 9.82219e-06, No Iterations 140
Solving Saturation Equation
diagonal:  Solving for sw, Initial residual = 0, Final residual = 0, No Iterations 0
Q_inj = 196575
Q_prod = 196575
qw_prod = -0
qo_prod = -196575

Imb = 1


Cmb = 1


NewDeltaT = 11

ExecutionTime = 626.6 s  ClockTime = 758 s

Time = 1298

Solving Pressure Equation
DICPCG:  Solving for po, Initial residual = 0.00136165, Final residual = 9.83775e-06, No Iterations 143
Solving Saturation Equation
diagonal:  Solving for sw, Initial residual = 0, Final residual = 0, No Iterations 0
Q_inj = 196575
Q_prod = 196575
qw_prod = -0
qo_prod = -196575

Imb = 1


Cmb = 1


NewDeltaT = 11

ExecutionTime = 632.49 s  ClockTime = 764 s

Time = 1309

Solving Pressure Equation
DICPCG:  Solving for po, Initial residual = 0.00135335, Final residual = 9.95019e-06, No Iterations 140
Solving Saturation Equation
diagonal:  Solving for sw, Initial residual = 0, Final residual = 0, No Iterations 0
Q_inj = 196575
Q_prod = 196575
qw_prod = -0
qo_prod = -196575

Imb = 1


Cmb = 1


NewDeltaT = 11

ExecutionTime = 638.16 s  ClockTime = 770 s

Time = 1320

Solving Pressure Equation
DICPCG:  Solving for po, Initial residual = 0.00134497, Final residual = 9.94625e-06, No Iterations 143
Solving Saturation Equation
diagonal:  Solving for sw, Initial residual = 0, Final residual = 0, No Iterations 0
Q_inj = 196575
Q_prod = 196575
qw_prod = -0
qo_prod = -196575

Imb = 1


Cmb = 1


NewDeltaT = 11

ExecutionTime = 644.47 s  ClockTime = 777 s

Time = 1331

Solving Pressure Equation
DICPCG:  Solving for po, Initial residual = 0.00133578, Final residual = 9.80885e-06, No Iterations 143
Solving Saturation Equation
diagonal:  Solving for sw, Initial residual = 0, Final residual = 0, No Iterations 0
Q_inj = 196575
Q_prod = 196575
qw_prod = -0
qo_prod = -196575

Imb = 1


Cmb = 1


NewDeltaT = 11

ExecutionTime = 649.97 s  ClockTime = 783 s

Time = 1342

Solving Pressure Equation
DICPCG:  Solving for po, Initial residual = 0.00132608, Final residual = 9.99006e-06, No Iterations 143
Solving Saturation Equation
diagonal:  Solving for sw, Initial residual = 0, Final residual = 0, No Iterations 0
Q_inj = 196575
Q_prod = 196575
qw_prod = -0
qo_prod = -196575

Imb = 1


Cmb = 1


NewDeltaT = 11

ExecutionTime = 656.93 s  ClockTime = 791 s

Time = 1353

Solving Pressure Equation
DICPCG:  Solving for po, Initial residual = 0.00131627, Final residual = 9.88307e-06, No Iterations 140
Solving Saturation Equation
diagonal:  Solving for sw, Initial residual = 0, Final residual = 0, No Iterations 0
Q_inj = 196575
Q_prod = 196575
qw_prod = -0
qo_prod = -196575

Imb = 1


Cmb = 1


NewDeltaT = 11

ExecutionTime = 662.25 s  ClockTime = 797 s

Time = 1364

Solving Pressure Equation
DICPCG:  Solving for po, Initial residual = 0.00130676, Final residual = 9.97292e-06, No Iterations 143
Solving Saturation Equation
diagonal:  Solving for sw, Initial residual = 0, Final residual = 0, No Iterations 0
Q_inj = 196575
Q_prod = 196575
qw_prod = -0
qo_prod = -196575

Imb = 1


Cmb = 1


NewDeltaT = 11

ExecutionTime = 668.89 s  ClockTime = 804 s

Time = 1375

Solving Pressure Equation
DICPCG:  Solving for po, Initial residual = 0.00129795, Final residual = 9.9148e-06, No Iterations 140
Solving Saturation Equation
diagonal:  Solving for sw, Initial residual = 0, Final residual = 0, No Iterations 0
Q_inj = 196575
Q_prod = 196575
qw_prod = -0
qo_prod = -196575

Imb = 1


Cmb = 1


NewDeltaT = 11

ExecutionTime = 675.83 s  ClockTime = 812 s

Time = 1386

Solving Pressure Equation
DICPCG:  Solving for po, Initial residual = 0.0012885, Final residual = 9.95276e-06, No Iterations 143
Solving Saturation Equation
diagonal:  Solving for sw, Initial residual = 0, Final residual = 0, No Iterations 0
Q_inj = 196575
Q_prod = 196575
qw_prod = -0
qo_prod = -196575

Imb = 1


Cmb = 1


NewDeltaT = 11

ExecutionTime = 682.33 s  ClockTime = 819 s

Time = 1397

Solving Pressure Equation
DICPCG:  Solving for po, Initial residual = 0.00127851, Final residual = 9.87709e-06, No Iterations 140
Solving Saturation Equation
diagonal:  Solving for sw, Initial residual = 0, Final residual = 0, No Iterations 0
Q_inj = 196575
Q_prod = 196575
qw_prod = -0
qo_prod = -196575

Imb = 1


Cmb = 1


NewDeltaT = 11

ExecutionTime = 688.23 s  ClockTime = 825 s

Time = 1408

Solving Pressure Equation
DICPCG:  Solving for po, Initial residual = 0.00126847, Final residual = 9.95648e-06, No Iterations 143
Solving Saturation Equation
diagonal:  Solving for sw, Initial residual = 0, Final residual = 0, No Iterations 0
Q_inj = 196575
Q_prod = 196575
qw_prod = -0
qo_prod = -196575

Imb = 1


Cmb = 1


NewDeltaT = 11

ExecutionTime = 695.32 s  ClockTime = 833 s

Time = 1419

Solving Pressure Equation
DICPCG:  Solving for po, Initial residual = 0.00125846, Final residual = 9.80122e-06, No Iterations 143
Solving Saturation Equation
diagonal:  Solving for sw, Initial residual = 0, Final residual = 0, No Iterations 0
Q_inj = 196575
Q_prod = 196575
qw_prod = -0
qo_prod = -196575

Imb = 1


Cmb = 1


NewDeltaT = 11

ExecutionTime = 701.55 s  ClockTime = 840 s

Time = 1430

Solving Pressure Equation
DICPCG:  Solving for po, Initial residual = 0.00124916, Final residual = 9.43695e-06, No Iterations 239
Solving Saturation Equation
diagonal:  Solving for sw, Initial residual = 0, Final residual = 0, No Iterations 0
Q_inj = 196575
Q_prod = 196575
qw_prod = -0
qo_prod = -196575

Imb = 1


Cmb = 1


NewDeltaT = 11

ExecutionTime = 711 s  ClockTime = 850 s

Time = 1441

Solving Pressure Equation
DICPCG:  Solving for po, Initial residual = 0.00124032, Final residual = 9.69194e-06, No Iterations 103
Solving Saturation Equation
diagonal:  Solving for sw, Initial residual = 0, Final residual = 0, No Iterations 0
Q_inj = 196575
Q_prod = 196575
qw_prod = -0
qo_prod = -196575

Imb = 1


Cmb = 1


NewDeltaT = 11

ExecutionTime = 715.61 s  ClockTime = 855 s

Time = 1452

Solving Pressure Equation
DICPCG:  Solving for po, Initial residual = 0.00123216, Final residual = 9.66074e-06, No Iterations 113
Solving Saturation Equation
diagonal:  Solving for sw, Initial residual = 0, Final residual = 0, No Iterations 0
Q_inj = 196575
Q_prod = 196575
qw_prod = -0
qo_prod = -196575

Imb = 1


Cmb = 1


NewDeltaT = 11

ExecutionTime = 721.51 s  ClockTime = 862 s

Time = 1463

Solving Pressure Equation
DICPCG:  Solving for po, Initial residual = 0.00122508, Final residual = 9.64504e-06, No Iterations 113
Solving Saturation Equation
diagonal:  Solving for sw, Initial residual = 0, Final residual = 0, No Iterations 0
Q_inj = 196575
Q_prod = 196575
qw_prod = -0
qo_prod = -196575

Imb = 1


Cmb = 1


NewDeltaT = 11

ExecutionTime = 727.15 s  ClockTime = 870 s

Time = 1474

Solving Pressure Equation
DICPCG:  Solving for po, Initial residual = 0.0012187, Final residual = 9.85974e-06, No Iterations 113
Solving Saturation Equation
diagonal:  Solving for sw, Initial residual = 0, Final residual = 0, No Iterations 0
Q_inj = 196575
Q_prod = 196575
qw_prod = -0
qo_prod = -196575

Imb = 1


Cmb = 1


NewDeltaT = 11

ExecutionTime = 732.21 s  ClockTime = 876 s

Time = 1485

Solving Pressure Equation
DICPCG:  Solving for po, Initial residual = 0.00121219, Final residual = 9.71424e-06, No Iterations 114
Solving Saturation Equation
diagonal:  Solving for sw, Initial residual = 0, Final residual = 0, No Iterations 0
Q_inj = 196575
Q_prod = 196575
qw_prod = -0
qo_prod = -196575

Imb = 1


Cmb = 1


NewDeltaT = 11

ExecutionTime = 738.37 s  ClockTime = 883 s

Time = 1496

Solving Pressure Equation
DICPCG:  Solving for po, Initial residual = 0.00120552, Final residual = 9.89338e-06, No Iterations 114
Solving Saturation Equation
diagonal:  Solving for sw, Initial residual = 0, Final residual = 0, No Iterations 0
Q_inj = 196575
Q_prod = 196575
qw_prod = -0
qo_prod = -196575

Imb = 1


Cmb = 1


NewDeltaT = 11

ExecutionTime = 743.6 s  ClockTime = 888 s

Time = 1507

Solving Pressure Equation
DICPCG:  Solving for po, Initial residual = 0.00119906, Final residual = 9.68982e-06, No Iterations 120
Solving Saturation Equation
diagonal:  Solving for sw, Initial residual = 0, Final residual = 0, No Iterations 0
Q_inj = 196575
Q_prod = 196575
qw_prod = -0
qo_prod = -196575

Imb = 1


Cmb = 1


NewDeltaT = 11

ExecutionTime = 750.13 s  ClockTime = 895 s

Time = 1518

Solving Pressure Equation
DICPCG:  Solving for po, Initial residual = 0.00119195, Final residual = 9.61424e-06, No Iterations 123
Solving Saturation Equation
diagonal:  Solving for sw, Initial residual = 0, Final residual = 0, No Iterations 0
Q_inj = 196575
Q_prod = 196575
qw_prod = -0
qo_prod = -196575

Imb = 1


Cmb = 1


NewDeltaT = 11

ExecutionTime = 755.39 s  ClockTime = 901 s

Time = 1529

Solving Pressure Equation
DICPCG:  Solving for po, Initial residual = 0.00118494, Final residual = 9.98038e-06, No Iterations 123
Solving Saturation Equation
diagonal:  Solving for sw, Initial residual = 0, Final residual = 0, No Iterations 0
Q_inj = 196575
Q_prod = 196575
qw_prod = -0
qo_prod = -196575

Imb = 1


Cmb = 1


NewDeltaT = 11

ExecutionTime = 761.88 s  ClockTime = 908 s

Time = 1540

Solving Pressure Equation
DICPCG:  Solving for po, Initial residual = 0.00117877, Final residual = 9.79306e-06, No Iterations 130
Solving Saturation Equation
diagonal:  Solving for sw, Initial residual = 0, Final residual = 0, No Iterations 0
Q_inj = 196575
Q_prod = 196575
qw_prod = -0
qo_prod = -196575

Imb = 1


Cmb = 1


NewDeltaT = 11

ExecutionTime = 767.32 s  ClockTime = 914 s

Time = 1551

Solving Pressure Equation
DICPCG:  Solving for po, Initial residual = 0.00117228, Final residual = 9.68158e-06, No Iterations 131
Solving Saturation Equation
diagonal:  Solving for sw, Initial residual = 0, Final residual = 0, No Iterations 0
Q_inj = 196575
Q_prod = 196575
qw_prod = -0
qo_prod = -196575

Imb = 1


Cmb = 1


NewDeltaT = 11

ExecutionTime = 774.07 s  ClockTime = 921 s

Time = 1562

Solving Pressure Equation
DICPCG:  Solving for po, Initial residual = 0.00116531, Final residual = 9.96563e-06, No Iterations 131
Solving Saturation Equation
diagonal:  Solving for sw, Initial residual = 0, Final residual = 0, No Iterations 0
Q_inj = 196575
Q_prod = 196575
qw_prod = -0
qo_prod = -196575

Imb = 1


Cmb = 1


NewDeltaT = 11

ExecutionTime = 779.61 s  ClockTime = 927 s

Time = 1573

Solving Pressure Equation
DICPCG:  Solving for po, Initial residual = 0.00115852, Final residual = 9.86726e-06, No Iterations 132
Solving Saturation Equation
diagonal:  Solving for sw, Initial residual = 0, Final residual = 0, No Iterations 0
Q_inj = 196575
Q_prod = 196575
qw_prod = -0
qo_prod = -196575

Imb = 1


Cmb = 1


NewDeltaT = 11

ExecutionTime = 786 s  ClockTime = 934 s

Time = 1584

Solving Pressure Equation
DICPCG:  Solving for po, Initial residual = 0.00115112, Final residual = 9.63435e-06, No Iterations 135
Solving Saturation Equation
diagonal:  Solving for sw, Initial residual = 0, Final residual = 0, No Iterations 0
Q_inj = 196575
Q_prod = 196575
qw_prod = -0
qo_prod = -196575

Imb = 1


Cmb = 1


NewDeltaT = 11

ExecutionTime = 792.92 s  ClockTime = 942 s

Time = 1595

Solving Pressure Equation
DICPCG:  Solving for po, Initial residual = 0.00114405, Final residual = 9.99596e-06, No Iterations 138
Solving Saturation Equation
diagonal:  Solving for sw, Initial residual = 0, Final residual = 0, No Iterations 0
Q_inj = 196575
Q_prod = 196575
qw_prod = -0
qo_prod = -196575

Imb = 1


Cmb = 1


NewDeltaT = 11

ExecutionTime = 798.67 s  ClockTime = 948 s

Time = 1606

Solving Pressure Equation
DICPCG:  Solving for po, Initial residual = 0.00113742, Final residual = 9.85802e-06, No Iterations 139
Solving Saturation Equation
diagonal:  Solving for sw, Initial residual = 0, Final residual = 0, No Iterations 0
Q_inj = 196575
Q_prod = 196575
qw_prod = -0
qo_prod = -196575

Imb = 1


Cmb = 1


NewDeltaT = 11

ExecutionTime = 805.25 s  ClockTime = 955 s

Time = 1617

Solving Pressure Equation
DICPCG:  Solving for po, Initial residual = 0.00113062, Final residual = 9.88413e-06, No Iterations 140
Solving Saturation Equation
diagonal:  Solving for sw, Initial residual = 0, Final residual = 0, No Iterations 0
Q_inj = 196575
Q_prod = 196575
qw_prod = -0
qo_prod = -196575

Imb = 1


Cmb = 1


NewDeltaT = 11

ExecutionTime = 812.14 s  ClockTime = 963 s

Time = 1628

Solving Pressure Equation
DICPCG:  Solving for po, Initial residual = 0.00112364, Final residual = 9.89085e-06, No Iterations 139
Solving Saturation Equation
diagonal:  Solving for sw, Initial residual = 0, Final residual = 0, No Iterations 0
Q_inj = 196575
Q_prod = 196575
qw_prod = -0
qo_prod = -196575

Imb = 1


Cmb = 1


NewDeltaT = 11

ExecutionTime = 817.09 s  ClockTime = 968 s

Time = 1639

Solving Pressure Equation
DICPCG:  Solving for po, Initial residual = 0.00111699, Final residual = 9.59209e-06, No Iterations 239
Solving Saturation Equation
diagonal:  Solving for sw, Initial residual = 0, Final residual = 0, No Iterations 0
Q_inj = 196575
Q_prod = 196575
qw_prod = -0
qo_prod = -196575

Imb = 1


Cmb = 1


NewDeltaT = 11

ExecutionTime = 824.99 s  ClockTime = 977 s

Time = 1650

Solving Pressure Equation
DICPCG:  Solving for po, Initial residual = 0.00111036, Final residual = 9.86427e-06, No Iterations 102
Solving Saturation Equation
diagonal:  Solving for sw, Initial residual = 0, Final residual = 0, No Iterations 0
Q_inj = 196575
Q_prod = 196575
qw_prod = -0
qo_prod = -196575

Imb = 1


Cmb = 1


NewDeltaT = 11

ExecutionTime = 828.96 s  ClockTime = 981 s

Time = 1661

Solving Pressure Equation
DICPCG:  Solving for po, Initial residual = 0.00110439, Final residual = 9.61924e-06, No Iterations 113
Solving Saturation Equation
diagonal:  Solving for sw, Initial residual = 0, Final residual = 0, No Iterations 0
Q_inj = 196575
Q_prod = 196575
qw_prod = -0
qo_prod = -196575

Imb = 1


Cmb = 1


NewDeltaT = 11

ExecutionTime = 835.03 s  ClockTime = 988 s

Time = 1672

Solving Pressure Equation
DICPCG:  Solving for po, Initial residual = 0.00109811, Final residual = 9.44251e-06, No Iterations 113
Solving Saturation Equation
diagonal:  Solving for sw, Initial residual = 0, Final residual = 0, No Iterations 0
Q_inj = 196575
Q_prod = 196575
qw_prod = -0
qo_prod = -196575

Imb = 1


Cmb = 1


NewDeltaT = 11

ExecutionTime = 839.82 s  ClockTime = 993 s

Time = 1683

Solving Pressure Equation
DICPCG:  Solving for po, Initial residual = 0.00109131, Final residual = 9.9292e-06, No Iterations 113
Solving Saturation Equation
diagonal:  Solving for sw, Initial residual = 0, Final residual = 0, No Iterations 0
Q_inj = 196575
Q_prod = 196575
qw_prod = -0
qo_prod = -196575

Imb = 1


Cmb = 1


NewDeltaT = 11

ExecutionTime = 845.75 s  ClockTime = 999 s

Time = 1694

Solving Pressure Equation
DICPCG:  Solving for po, Initial residual = 0.0010855, Final residual = 9.70439e-06, No Iterations 114
Solving Saturation Equation
diagonal:  Solving for sw, Initial residual = 0, Final residual = 0, No Iterations 0
Q_inj = 196575
Q_prod = 196575
qw_prod = -0
qo_prod = -196575

Imb = 1


Cmb = 1


NewDeltaT = 11

ExecutionTime = 850.97 s  ClockTime = 1005 s

Time = 1705

Solving Pressure Equation
DICPCG:  Solving for po, Initial residual = 0.00107891, Final residual = 9.9356e-06, No Iterations 114
Solving Saturation Equation
diagonal:  Solving for sw, Initial residual = 0, Final residual = 0, No Iterations 0
Q_inj = 196575
Q_prod = 196575
qw_prod = -0
qo_prod = -196575

Imb = 1


Cmb = 1


NewDeltaT = 11

ExecutionTime = 856.07 s  ClockTime = 1010 s

Time = 1716

Solving Pressure Equation
DICPCG:  Solving for po, Initial residual = 0.00107303, Final residual = 9.92135e-06, No Iterations 120
Solving Saturation Equation
diagonal:  Solving for sw, Initial residual = 0, Final residual = 0, No Iterations 0
Q_inj = 196575
Q_prod = 196575
qw_prod = -0
qo_prod = -196575

Imb = 1


Cmb = 1


NewDeltaT = 11

ExecutionTime = 862.54 s  ClockTime = 1018 s

Time = 1727

Solving Pressure Equation
DICPCG:  Solving for po, Initial residual = 0.00106708, Final residual = 9.92537e-06, No Iterations 123
Solving Saturation Equation
diagonal:  Solving for sw, Initial residual = 0, Final residual = 0, No Iterations 0
Q_inj = 196575
Q_prod = 196575
qw_prod = -0
qo_prod = -196575

Imb = 1


Cmb = 1


NewDeltaT = 11

ExecutionTime = 868.17 s  ClockTime = 1024 s

Time = 1738

Solving Pressure Equation
DICPCG:  Solving for po, Initial residual = 0.00106086, Final residual = 9.88272e-06, No Iterations 125
Solving Saturation Equation
diagonal:  Solving for sw, Initial residual = 0, Final residual = 0, No Iterations 0
Q_inj = 196575
Q_prod = 196575
qw_prod = -0
qo_prod = -196575

Imb = 1


Cmb = 1


NewDeltaT = 11

ExecutionTime = 874.18 s  ClockTime = 1031 s

Time = 1749

Solving Pressure Equation
DICPCG:  Solving for po, Initial residual = 0.00105541, Final residual = 8.9096e-06, No Iterations 131
Solving Saturation Equation
diagonal:  Solving for sw, Initial residual = 0, Final residual = 0, No Iterations 0
Q_inj = 196575
Q_prod = 196575
qw_prod = -0
qo_prod = -196575

Imb = 1


Cmb = 1


NewDeltaT = 11

ExecutionTime = 880.69 s  ClockTime = 1038 s

Time = 1760

Solving Pressure Equation
DICPCG:  Solving for po, Initial residual = 0.00104932, Final residual = 9.46831e-06, No Iterations 131
Solving Saturation Equation
diagonal:  Solving for sw, Initial residual = 0, Final residual = 0, No Iterations 0
Q_inj = 196575
Q_prod = 196575
qw_prod = -0
qo_prod = -196575

Imb = 1


Cmb = 1


NewDeltaT = 11

ExecutionTime = 886.06 s  ClockTime = 1043 s

Time = 1771

Solving Pressure Equation
DICPCG:  Solving for po, Initial residual = 0.00104461, Final residual = 9.82865e-06, No Iterations 131
Solving Saturation Equation
diagonal:  Solving for sw, Initial residual = 0, Final residual = 0, No Iterations 0
Q_inj = 196575
Q_prod = 196575
qw_prod = -0
qo_prod = -196575

Imb = 1


Cmb = 1


NewDeltaT = 11

ExecutionTime = 892.48 s  ClockTime = 1051 s

Time = 1782

Solving Pressure Equation
DICPCG:  Solving for po, Initial residual = 0.00104013, Final residual = 9.8601e-06, No Iterations 132
Solving Saturation Equation
diagonal:  Solving for sw, Initial residual = 0, Final residual = 0, No Iterations 0
Q_inj = 196575
Q_prod = 196575
qw_prod = -0
qo_prod = -196575

Imb = 1


Cmb = 1


NewDeltaT = 11

ExecutionTime = 897.62 s  ClockTime = 1056 s

Time = 1793

Solving Pressure Equation
DICPCG:  Solving for po, Initial residual = 0.00103519, Final residual = 9.93917e-06, No Iterations 133
Solving Saturation Equation
diagonal:  Solving for sw, Initial residual = 0, Final residual = 0, No Iterations 0
Q_inj = 196575
Q_prod = 196575
qw_prod = -0
qo_prod = -196575

Imb = 1


Cmb = 1


NewDeltaT = 11

ExecutionTime = 903.59 s  ClockTime = 1063 s

Time = 1804

Solving Pressure Equation
DICPCG:  Solving for po, Initial residual = 0.0010304, Final residual = 9.50222e-06, No Iterations 139
Solving Saturation Equation
diagonal:  Solving for sw, Initial residual = 0, Final residual = 0, No Iterations 0
Q_inj = 196575
Q_prod = 196575
qw_prod = -0
qo_prod = -196575

Imb = 1


Cmb = 1


NewDeltaT = 11

ExecutionTime = 908.55 s  ClockTime = 1068 s

Time = 1815

Solving Pressure Equation
DICPCG:  Solving for po, Initial residual = 0.00102575, Final residual = 9.81982e-06, No Iterations 139
Solving Saturation Equation
diagonal:  Solving for sw, Initial residual = 0, Final residual = 0, No Iterations 0
Q_inj = 196575
Q_prod = 196575
qw_prod = -0
qo_prod = -196575

Imb = 1


Cmb = 1


NewDeltaT = 11

ExecutionTime = 913.85 s  ClockTime = 1074 s

Time = 1826

Solving Pressure Equation
DICPCG:  Solving for po, Initial residual = 0.00102162, Final residual = 9.82146e-06, No Iterations 140
Solving Saturation Equation
diagonal:  Solving for sw, Initial residual = 0, Final residual = 0, No Iterations 0
Q_inj = 196575
Q_prod = 196575
qw_prod = -0
qo_prod = -196575

Imb = 1


Cmb = 1


NewDeltaT = 11

ExecutionTime = 920.11 s  ClockTime = 1081 s

Time = 1837

Solving Pressure Equation
DICPCG:  Solving for po, Initial residual = 0.00101748, Final residual = 9.99598e-06, No Iterations 140
Solving Saturation Equation
diagonal:  Solving for sw, Initial residual = 0, Final residual = 0, No Iterations 0
Q_inj = 196575
Q_prod = 196575
qw_prod = -0
qo_prod = -196575

Imb = 1


Cmb = 1


NewDeltaT = 11

ExecutionTime = 925.54 s  ClockTime = 1087 s

Time = 1848

Solving Pressure Equation
DICPCG:  Solving for po, Initial residual = 0.00101343, Final residual = 9.69178e-06, No Iterations 239
Solving Saturation Equation
diagonal:  Solving for sw, Initial residual = 0, Final residual = 0, No Iterations 0
Q_inj = 196575
Q_prod = 196575
qw_prod = -0
qo_prod = -196575

Imb = 1


Cmb = 1


NewDeltaT = 11

ExecutionTime = 933.37 s  ClockTime = 1095 s

Time = 1859

Solving Pressure Equation
DICPCG:  Solving for po, Initial residual = 0.00100891, Final residual = 9.74811e-06, No Iterations 103
Solving Saturation Equation
diagonal:  Solving for sw, Initial residual = 0, Final residual = 0, No Iterations 0
Q_inj = 196575
Q_prod = 196575
qw_prod = -0
qo_prod = -196575

Imb = 1


Cmb = 1


NewDeltaT = 11

ExecutionTime = 937.72 s  ClockTime = 1100 s

Time = 1870

Solving Pressure Equation
DICPCG:  Solving for po, Initial residual = 0.00100404, Final residual = 9.64232e-06, No Iterations 113
Solving Saturation Equation
diagonal:  Solving for sw, Initial residual = 0, Final residual = 0, No Iterations 0
Q_inj = 196575
Q_prod = 196575
qw_prod = -0
qo_prod = -196575

Imb = 1


Cmb = 1


NewDeltaT = 11

ExecutionTime = 942.95 s  ClockTime = 1106 s

Time = 1881

Solving Pressure Equation
DICPCG:  Solving for po, Initial residual = 0.000998891, Final residual = 9.72162e-06, No Iterations 113
Solving Saturation Equation
diagonal:  Solving for sw, Initial residual = 0, Final residual = 0, No Iterations 0
Q_inj = 196575
Q_prod = 196575
qw_prod = -0
qo_prod = -196575

Imb = 1


Cmb = 1


NewDeltaT = 11

ExecutionTime = 947.23 s  ClockTime = 1110 s

Time = 1892

Solving Pressure Equation
DICPCG:  Solving for po, Initial residual = 0.000993613, Final residual = 9.96154e-06, No Iterations 113
Solving Saturation Equation
diagonal:  Solving for sw, Initial residual = 0, Final residual = 0, No Iterations 0
Q_inj = 196575
Q_prod = 196575
qw_prod = -0
qo_prod = -196575

Imb = 1


Cmb = 1


NewDeltaT = 11

ExecutionTime = 952.48 s  ClockTime = 1116 s

Time = 1903

Solving Pressure Equation
DICPCG:  Solving for po, Initial residual = 0.000988265, Final residual = 9.92968e-06, No Iterations 114
Solving Saturation Equation
diagonal:  Solving for sw, Initial residual = 0, Final residual = 0, No Iterations 0
Q_inj = 196575
Q_prod = 196575
qw_prod = -0
qo_prod = -196575

Imb = 1


Cmb = 1


NewDeltaT = 11

ExecutionTime = 958.37 s  ClockTime = 1123 s

Time = 1914

Solving Pressure Equation
DICPCG:  Solving for po, Initial residual = 0.000982514, Final residual = 9.81989e-06, No Iterations 119
Solving Saturation Equation
diagonal:  Solving for sw, Initial residual = 0, Final residual = 0, No Iterations 0
Q_inj = 196575
Q_prod = 196575
qw_prod = -0
qo_prod = -196575

Imb = 1


Cmb = 1


NewDeltaT = 11

ExecutionTime = 963.47 s  ClockTime = 1128 s

Time = 1925

Solving Pressure Equation
DICPCG:  Solving for po, Initial residual = 0.000976784, Final residual = 9.97322e-06, No Iterations 120
Solving Saturation Equation
diagonal:  Solving for sw, Initial residual = 0, Final residual = 0, No Iterations 0
Q_inj = 196575
Q_prod = 196575
qw_prod = -0
qo_prod = -196575

Imb = 1


Cmb = 1


NewDeltaT = 11

ExecutionTime = 969.87 s  ClockTime = 1135 s

Time = 1936

Solving Pressure Equation
DICPCG:  Solving for po, Initial residual = 0.000971062, Final residual = 9.88758e-06, No Iterations 123
Solving Saturation Equation
diagonal:  Solving for sw, Initial residual = 0, Final residual = 0, No Iterations 0
Q_inj = 196575
Q_prod = 196575
qw_prod = -0
qo_prod = -196575

Imb = 1


Cmb = 1


NewDeltaT = 11

ExecutionTime = 975.59 s  ClockTime = 1141 s

Time = 1947

Solving Pressure Equation
DICPCG:  Solving for po, Initial residual = 0.000965636, Final residual = 9.99868e-06, No Iterations 123
Solving Saturation Equation
diagonal:  Solving for sw, Initial residual = 0, Final residual = 0, No Iterations 0
Q_inj = 196575
Q_prod = 196575
qw_prod = -0
qo_prod = -196575

Imb = 1


Cmb = 1


NewDeltaT = 11

ExecutionTime = 981.54 s  ClockTime = 1148 s

Time = 1958

Solving Pressure Equation
DICPCG:  Solving for po, Initial residual = 0.00096086, Final residual = 9.81117e-06, No Iterations 130
Solving Saturation Equation
diagonal:  Solving for sw, Initial residual = 0, Final residual = 0, No Iterations 0
Q_inj = 196575
Q_prod = 196575
qw_prod = -0
qo_prod = -196575

Imb = 1


Cmb = 1


NewDeltaT = 11

ExecutionTime = 988.22 s  ClockTime = 1155 s

Time = 1969

Solving Pressure Equation
DICPCG:  Solving for po, Initial residual = 0.000955798, Final residual = 9.41031e-06, No Iterations 131
Solving Saturation Equation
diagonal:  Solving for sw, Initial residual = 0, Final residual = 0, No Iterations 0
Q_inj = 196575
Q_prod = 196575
qw_prod = -0
qo_prod = -196575

Imb = 1


Cmb = 1


NewDeltaT = 11

ExecutionTime = 993.97 s  ClockTime = 1161 s

Time = 1980

Solving Pressure Equation
DICPCG:  Solving for po, Initial residual = 0.000951125, Final residual = 9.67839e-06, No Iterations 131
Solving Saturation Equation
diagonal:  Solving for sw, Initial residual = 0, Final residual = 0, No Iterations 0
Q_inj = 196575
Q_prod = 196575
qw_prod = -0
qo_prod = -196575

Imb = 1


Cmb = 1


NewDeltaT = 11

ExecutionTime = 1000.54 s  ClockTime = 1169 s

Time = 1991

Solving Pressure Equation
DICPCG:  Solving for po, Initial residual = 0.000947207, Final residual = 9.50099e-06, No Iterations 134
Solving Saturation Equation
diagonal:  Solving for sw, Initial residual = 0, Final residual = 0, No Iterations 0
Q_inj = 196575
Q_prod = 196575
qw_prod = -0
qo_prod = -196575

Imb = 1


Cmb = 1


NewDeltaT = 11

ExecutionTime = 1007.08 s  ClockTime = 1176 s

Time = 2002

Solving Pressure Equation
DICPCG:  Solving for po, Initial residual = 0.000942564, Final residual = 9.72674e-06, No Iterations 135
Solving Saturation Equation
diagonal:  Solving for sw, Initial residual = 0, Final residual = 0, No Iterations 0
Q_inj = 196575
Q_prod = 196575
qw_prod = -0
qo_prod = -196575

Imb = 1


Cmb = 1


NewDeltaT = 11

ExecutionTime = 1012.62 s  ClockTime = 1182 s

Time = 2013

Solving Pressure Equation
DICPCG:  Solving for po, Initial residual = 0.000938832, Final residual = 9.90586e-06, No Iterations 135
Solving Saturation Equation
diagonal:  Solving for sw, Initial residual = 0, Final residual = 0, No Iterations 0
Q_inj = 196575
Q_prod = 196575
qw_prod = -0
qo_prod = -196575

Imb = 1


Cmb = 1


NewDeltaT = 11

ExecutionTime = 1018.86 s  ClockTime = 1189 s

Time = 2024

Solving Pressure Equation
DICPCG:  Solving for po, Initial residual = 0.000935271, Final residual = 9.82455e-06, No Iterations 139
Solving Saturation Equation
diagonal:  Solving for sw, Initial residual = 0, Final residual = 0, No Iterations 0
Q_inj = 196575
Q_prod = 196575
qw_prod = -0
qo_prod = -196575

Imb = 1


Cmb = 1


NewDeltaT = 11

ExecutionTime = 1024.58 s  ClockTime = 1195 s

Time = 2035

Solving Pressure Equation
DICPCG:  Solving for po, Initial residual = 0.000931527, Final residual = 9.81391e-06, No Iterations 138
Solving Saturation Equation
diagonal:  Solving for sw, Initial residual = 0, Final residual = 0, No Iterations 0
Q_inj = 196575
Q_prod = 196575
qw_prod = -0
qo_prod = -196575

Imb = 1


Cmb = 1


NewDeltaT = 11

ExecutionTime = 1031.26 s  ClockTime = 1202 s

Time = 2046

Solving Pressure Equation
DICPCG:  Solving for po, Initial residual = 0.000927879, Final residual = 9.75813e-06, No Iterations 239
Solving Saturation Equation
diagonal:  Solving for sw, Initial residual = 0, Final residual = 0, No Iterations 0
Q_inj = 196575
Q_prod = 196575
qw_prod = -0
qo_prod = -196575

Imb = 1


Cmb = 1


NewDeltaT = 11

ExecutionTime = 1040.58 s  ClockTime = 1212 s

Time = 2057

Solving Pressure Equation
DICPCG:  Solving for po, Initial residual = 0.000924149, Final residual = 9.973e-06, No Iterations 103
Solving Saturation Equation
diagonal:  Solving for sw, Initial residual = 0, Final residual = 0, No Iterations 0
Q_inj = 196575
Q_prod = 196575
qw_prod = -0
qo_prod = -196575

Imb = 1


Cmb = 1


NewDeltaT = 11

ExecutionTime = 1046.6 s  ClockTime = 1219 s

Time = 2068

Solving Pressure Equation
DICPCG:  Solving for po, Initial residual = 0.00091992, Final residual = 9.71585e-06, No Iterations 113
Solving Saturation Equation
diagonal:  Solving for sw, Initial residual = 0, Final residual = 0, No Iterations 0
Q_inj = 196575
Q_prod = 196575
qw_prod = -0
qo_prod = -196575

Imb = 1


Cmb = 1


NewDeltaT = 11

ExecutionTime = 1051.48 s  ClockTime = 1224 s

Time = 2079

Solving Pressure Equation
DICPCG:  Solving for po, Initial residual = 0.000915786, Final residual = 9.76791e-06, No Iterations 113
Solving Saturation Equation
diagonal:  Solving for sw, Initial residual = 0, Final residual = 0, No Iterations 0
Q_inj = 196575
Q_prod = 196575
qw_prod = -0
qo_prod = -196575

Imb = 1


Cmb = 1


NewDeltaT = 11

ExecutionTime = 1057.7 s  ClockTime = 1231 s

Time = 2090

Solving Pressure Equation
DICPCG:  Solving for po, Initial residual = 0.000911941, Final residual = 9.95533e-06, No Iterations 113
Solving Saturation Equation
diagonal:  Solving for sw, Initial residual = 0, Final residual = 0, No Iterations 0
Q_inj = 196575
Q_prod = 196575
qw_prod = -0
qo_prod = -196575

Imb = 1


Cmb = 1


NewDeltaT = 11

ExecutionTime = 1062.8 s  ClockTime = 1236 s

Time = 2101

Solving Pressure Equation
DICPCG:  Solving for po, Initial residual = 0.000908756, Final residual = 9.98861e-06, No Iterations 114
Solving Saturation Equation
diagonal:  Solving for sw, Initial residual = 0, Final residual = 0, No Iterations 0
Q_inj = 196575
Q_prod = 196575
qw_prod = -0
qo_prod = -196575

Imb = 1


Cmb = 1


NewDeltaT = 11

ExecutionTime = 1068.54 s  ClockTime = 1243 s

Time = 2112

Solving Pressure Equation
DICPCG:  Solving for po, Initial residual = 0.000905291, Final residual = 9.95799e-06, No Iterations 119
Solving Saturation Equation
diagonal:  Solving for sw, Initial residual = 0, Final residual = 0, No Iterations 0
Q_inj = 196575
Q_prod = 196575
qw_prod = -0
qo_prod = -196575

Imb = 1


Cmb = 1


NewDeltaT = 11

ExecutionTime = 1073.82 s  ClockTime = 1248 s

Time = 2123

Solving Pressure Equation
DICPCG:  Solving for po, Initial residual = 0.000901986, Final residual = 9.89785e-06, No Iterations 121
Solving Saturation Equation
diagonal:  Solving for sw, Initial residual = 0, Final residual = 0, No Iterations 0
Q_inj = 196575
Q_prod = 196575
qw_prod = -0
qo_prod = -196575

Imb = 1


Cmb = 1


NewDeltaT = 11

ExecutionTime = 1078.47 s  ClockTime = 1254 s

Time = 2134

Solving Pressure Equation
DICPCG:  Solving for po, Initial residual = 0.000898126, Final residual = 9.82926e-06, No Iterations 125
Solving Saturation Equation
diagonal:  Solving for sw, Initial residual = 0, Final residual = 0, No Iterations 0
Q_inj = 196575
Q_prod = 196575
qw_prod = -0
qo_prod = -196575

Imb = 1


Cmb = 1


NewDeltaT = 11

ExecutionTime = 1084.02 s  ClockTime = 1260 s

Time = 2145

Solving Pressure Equation
DICPCG:  Solving for po, Initial residual = 0.000894281, Final residual = 9.22313e-06, No Iterations 130
Solving Saturation Equation
diagonal:  Solving for sw, Initial residual = 0, Final residual = 0, No Iterations 0
Q_inj = 196575
Q_prod = 196575
qw_prod = -0
qo_prod = -196575

Imb = 1


Cmb = 1


NewDeltaT = 11

ExecutionTime = 1088.94 s  ClockTime = 1265 s

Time = 2156

Solving Pressure Equation
DICPCG:  Solving for po, Initial residual = 0.000890172, Final residual = 9.66309e-06, No Iterations 130
Solving Saturation Equation
diagonal:  Solving for sw, Initial residual = 0, Final residual = 0, No Iterations 0
Q_inj = 196575
Q_prod = 196575
qw_prod = -0
qo_prod = -196575

Imb = 1


Cmb = 1


NewDeltaT = 11

ExecutionTime = 1093.87 s  ClockTime = 1271 s

Time = 2167

Solving Pressure Equation
DICPCG:  Solving for po, Initial residual = 0.000886972, Final residual = 9.51047e-06, No Iterations 131
Solving Saturation Equation
diagonal:  Solving for sw, Initial residual = 0, Final residual = 0, No Iterations 0
Q_inj = 196575
Q_prod = 196575
qw_prod = -0
qo_prod = -196575

Imb = 1


Cmb = 1


[...]
Q_prod = 196575
qw_prod = -0
qo_prod = -196575

Imb = 1


Cmb = 1


NewDeltaT = 11

ExecutionTime = 10987.8 s  ClockTime = 12502 s

Time = 20966

Solving Pressure Equation
DICPCG:  Solving for po, Initial residual = 0.000168332, Final residual = 9.05233e-06, No Iterations 270
Solving Saturation Equation
diagonal:  Solving for sw, Initial residual = 0, Final residual = 0, No Iterations 0
Q_inj = 196575
Q_prod = 196575
qw_prod = -0
qo_prod = -196575

Imb = 1


Cmb = 1


NewDeltaT = 11

ExecutionTime = 10995.9 s  ClockTime = 12510 s

Time = 20977

Solving Pressure Equation
DICPCG:  Solving for po, Initial residual = 0.000167677, Final residual = 9.87851e-06, No Iterations 118
Solving Saturation Equation
diagonal:  Solving for sw, Initial residual = 0, Final residual = 0, No Iterations 0
Q_inj = 196575
Q_prod = 196575
qw_prod = -0
qo_prod = -196575

Imb = 1


Cmb = 1


NewDeltaT = 11

ExecutionTime = 11000.9 s  ClockTime = 12516 s

Time = 20988

Solving Pressure Equation
DICPCG:  Solving for po, Initial residual = 0.000167902, Final residual = 9.57711e-06, No Iterations 119
Solving Saturation Equation
diagonal:  Solving for sw, Initial residual = 0, Final residual = 0, No Iterations 0
Q_inj = 196575
Q_prod = 196575
qw_prod = -0
qo_prod = -196575

Imb = 1


Cmb = 1


NewDeltaT = 11

ExecutionTime = 11005.8 s  ClockTime = 12522 s

Time = 20999

Solving Pressure Equation
DICPCG:  Solving for po, Initial residual = 0.000167577, Final residual = 8.93766e-06, No Iterations 120
Solving Saturation Equation
diagonal:  Solving for sw, Initial residual = 0, Final residual = 0, No Iterations 0
Q_inj = 196575
Q_prod = 196575
qw_prod = -0
qo_prod = -196575

Imb = 1


Cmb = 1


NewDeltaT = 11

ExecutionTime = 11010.5 s  ClockTime = 12527 s

Time = 21010

Solving Pressure Equation
DICPCG:  Solving for po, Initial residual = 0.00016734, Final residual = 9.39483e-06, No Iterations 120
Solving Saturation Equation
diagonal:  Solving for sw, Initial residual = 0, Final residual = 0, No Iterations 0
Q_inj = 196575
Q_prod = 196575
qw_prod = -0
qo_prod = -196575

Imb = 1


Cmb = 1


NewDeltaT = 11

ExecutionTime = 11015 s  ClockTime = 12531 s

Time = 21021

Solving Pressure Equation
DICPCG:  Solving for po, Initial residual = 0.000167648, Final residual = 9.83682e-06, No Iterations 121
Solving Saturation Equation
diagonal:  Solving for sw, Initial residual = 0, Final residual = 0, No Iterations 0
Q_inj = 196575
Q_prod = 196575
qw_prod = -0
qo_prod = -196575

Imb = 1


Cmb = 1


NewDeltaT = 11

ExecutionTime = 11019.4 s  ClockTime = 12536 s

Time = 21032

Solving Pressure Equation
DICPCG:  Solving for po, Initial residual = 0.0001677, Final residual = 9.89414e-06, No Iterations 125
Solving Saturation Equation
diagonal:  Solving for sw, Initial residual = 0, Final residual = 0, No Iterations 0
Q_inj = 196575
Q_prod = 196575
qw_prod = -0
qo_prod = -196575

Imb = 1


Cmb = 1


NewDeltaT = 11

ExecutionTime = 11024.9 s  ClockTime = 12543 s

Time = 21043

Solving Pressure Equation
DICPCG:  Solving for po, Initial residual = 0.000167776, Final residual = 9.71227e-06, No Iterations 127
Solving Saturation Equation
diagonal:  Solving for sw, Initial residual = 0, Final residual = 0, No Iterations 0
Q_inj = 196575
Q_prod = 196575
qw_prod = -0
qo_prod = -196575

Imb = 1


Cmb = 1


NewDeltaT = 11

ExecutionTime = 11029.8 s  ClockTime = 12548 s

Time = 21054

Solving Pressure Equation
DICPCG:  Solving for po, Initial residual = 0.000167738, Final residual = 9.17638e-06, No Iterations 270
Solving Saturation Equation
diagonal:  Solving for sw, Initial residual = 0, Final residual = 0, No Iterations 0
Q_inj = 196575
Q_prod = 196575
qw_prod = -0
qo_prod = -196575

Imb = 1


Cmb = 1


NewDeltaT = 11

ExecutionTime = 11038.1 s  ClockTime = 12557 s

Time = 21065

Solving Pressure Equation
DICPCG:  Solving for po, Initial residual = 0.000167404, Final residual = 9.93895e-06, No Iterations 118
Solving Saturation Equation
diagonal:  Solving for sw, Initial residual = 0, Final residual = 0, No Iterations 0
Q_inj = 196575
Q_prod = 196575
qw_prod = -0
qo_prod = -196575

Imb = 1


Cmb = 1


NewDeltaT = 11

ExecutionTime = 11042.8 s  ClockTime = 12563 s

Time = 21076

Solving Pressure Equation
DICPCG:  Solving for po, Initial residual = 0.000167338, Final residual = 9.61432e-06, No Iterations 119
Solving Saturation Equation
diagonal:  Solving for sw, Initial residual = 0, Final residual = 0, No Iterations 0
Q_inj = 196575
Q_prod = 196575
qw_prod = -0
qo_prod = -196575

Imb = 1


Cmb = 1


NewDeltaT = 11

ExecutionTime = 11046.6 s  ClockTime = 12567 s

Time = 21087

Solving Pressure Equation
DICPCG:  Solving for po, Initial residual = 0.000167224, Final residual = 8.97826e-06, No Iterations 120
Solving Saturation Equation
diagonal:  Solving for sw, Initial residual = 0, Final residual = 0, No Iterations 0
Q_inj = 196575
Q_prod = 196575
qw_prod = -0
qo_prod = -196575

Imb = 1


Cmb = 1


NewDeltaT = 11

ExecutionTime = 11050 s  ClockTime = 12571 s

Time = 21098

Solving Pressure Equation
DICPCG:  Solving for po, Initial residual = 0.000166948, Final residual = 8.78021e-06, No Iterations 120
Solving Saturation Equation
diagonal:  Solving for sw, Initial residual = 0, Final residual = 0, No Iterations 0
Q_inj = 196575
Q_prod = 196575
qw_prod = -0
qo_prod = -196575

Imb = 1


Cmb = 1


NewDeltaT = 11

ExecutionTime = 11054.3 s  ClockTime = 12576 s

Time = 21109

Solving Pressure Equation
DICPCG:  Solving for po, Initial residual = 0.000166894, Final residual = 9.78689e-06, No Iterations 121
Solving Saturation Equation
diagonal:  Solving for sw, Initial residual = 0, Final residual = 0, No Iterations 0
Q_inj = 196575
Q_prod = 196575
qw_prod = -0
qo_prod = -196575

Imb = 1


Cmb = 1


NewDeltaT = 11

ExecutionTime = 11058.8 s  ClockTime = 12580 s

Time = 21120

Solving Pressure Equation
DICPCG:  Solving for po, Initial residual = 0.000167365, Final residual = 9.93283e-06, No Iterations 120
Solving Saturation Equation
diagonal:  Solving for sw, Initial residual = 0, Final residual = 0, No Iterations 0
Q_inj = 196575
Q_prod = 196575
qw_prod = -0
qo_prod = -196575

Imb = 1


Cmb = 1


NewDeltaT = 11

ExecutionTime = 11062.8 s  ClockTime = 12585 s

Time = 21131

Solving Pressure Equation
DICPCG:  Solving for po, Initial residual = 0.000167654, Final residual = 9.64809e-06, No Iterations 127
Solving Saturation Equation
diagonal:  Solving for sw, Initial residual = 0, Final residual = 0, No Iterations 0
Q_inj = 196575
Q_prod = 196575
qw_prod = -0
qo_prod = -196575

Imb = 1


Cmb = 1


NewDeltaT = 11

ExecutionTime = 11067 s  ClockTime = 12589 s

Time = 21142

Solving Pressure Equation
DICPCG:  Solving for po, Initial residual = 0.00016731, Final residual = 8.25565e-06, No Iterations 270
Solving Saturation Equation
diagonal:  Solving for sw, Initial residual = 0, Final residual = 0, No Iterations 0
Q_inj = 196575
Q_prod = 196575
qw_prod = -0
qo_prod = -196575

Imb = 1


Cmb = 1


NewDeltaT = 11

ExecutionTime = 11073.8 s  ClockTime = 12597 s

Time = 21153

Solving Pressure Equation
DICPCG:  Solving for po, Initial residual = 0.000166397, Final residual = 9.89277e-06, No Iterations 118
Solving Saturation Equation
diagonal:  Solving for sw, Initial residual = 0, Final residual = 0, No Iterations 0
Q_inj = 196575
Q_prod = 196575
qw_prod = -0
qo_prod = -196575

Imb = 1


Cmb = 1


NewDeltaT = 11

ExecutionTime = 11077.6 s  ClockTime = 12601 s

Time = 21164

Solving Pressure Equation
DICPCG:  Solving for po, Initial residual = 0.000166988, Final residual = 9.8647e-06, No Iterations 118
Solving Saturation Equation
diagonal:  Solving for sw, Initial residual = 0, Final residual = 0, No Iterations 0
Q_inj = 196575
Q_prod = 196575
qw_prod = -0
qo_prod = -196575

Imb = 1


Cmb = 1


NewDeltaT = 11

ExecutionTime = 11081.7 s  ClockTime = 12606 s

Time = 21175

Solving Pressure Equation
DICPCG:  Solving for po, Initial residual = 0.000167016, Final residual = 9.95443e-06, No Iterations 119
Solving Saturation Equation
diagonal:  Solving for sw, Initial residual = 0, Final residual = 0, No Iterations 0
Q_inj = 196575
Q_prod = 196575
qw_prod = -0
qo_prod = -196575

Imb = 1


Cmb = 1


NewDeltaT = 11

ExecutionTime = 11085.6 s  ClockTime = 12610 s

Time = 21186

Solving Pressure Equation
DICPCG:  Solving for po, Initial residual = 0.000166977, Final residual = 8.93389e-06, No Iterations 120
Solving Saturation Equation
diagonal:  Solving for sw, Initial residual = 0, Final residual = 0, No Iterations 0
Q_inj = 196575
Q_prod = 196575
qw_prod = -0
qo_prod = -196575

Imb = 1


Cmb = 1


NewDeltaT = 11

ExecutionTime = 11090 s  ClockTime = 12615 s

Time = 21197

Solving Pressure Equation
DICPCG:  Solving for po, Initial residual = 0.000166496, Final residual = 9.73369e-06, No Iterations 121
Solving Saturation Equation
diagonal:  Solving for sw, Initial residual = 0, Final residual = 0, No Iterations 0
Q_inj = 196575
Q_prod = 196575
qw_prod = -0
qo_prod = -196575

Imb = 1


Cmb = 1


NewDeltaT = 11

ExecutionTime = 11094.5 s  ClockTime = 12619 s

Time = 21208

Solving Pressure Equation
DICPCG:  Solving for po, Initial residual = 0.000166896, Final residual = 9.85228e-06, No Iterations 123
Solving Saturation Equation
diagonal:  Solving for sw, Initial residual = 0, Final residual = 0, No Iterations 0
Q_inj = 196575
Q_prod = 196575
qw_prod = -0
qo_prod = -196575

Imb = 1


Cmb = 1


NewDeltaT = 11

ExecutionTime = 11099.3 s  ClockTime = 12625 s

Time = 21219

Solving Pressure Equation
DICPCG:  Solving for po, Initial residual = 0.000166944, Final residual = 9.60738e-06, No Iterations 127
Solving Saturation Equation
diagonal:  Solving for sw, Initial residual = 0, Final residual = 0, No Iterations 0
Q_inj = 196575
Q_prod = 196575
qw_prod = -0
qo_prod = -196575

Imb = 1


Cmb = 1


NewDeltaT = 11

ExecutionTime = 11104.1 s  ClockTime = 12630 s

Time = 21230

Solving Pressure Equation
DICPCG:  Solving for po, Initial residual = 0.000166771, Final residual = 9.99575e-06, No Iterations 129
Solving Saturation Equation
diagonal:  Solving for sw, Initial residual = 0, Final residual = 0, No Iterations 0
Q_inj = 196575
Q_prod = 196575
qw_prod = -0
qo_prod = -196575

Imb = 1


Cmb = 1


NewDeltaT = 11

ExecutionTime = 11108.9 s  ClockTime = 12636 s

Time = 21241

Solving Pressure Equation
DICPCG:  Solving for po, Initial residual = 0.000167002, Final residual = 9.241e-06, No Iterations 270
Solving Saturation Equation
diagonal:  Solving for sw, Initial residual = 0, Final residual = 0, No Iterations 0
Q_inj = 196575
Q_prod = 196575
qw_prod = -0
qo_prod = -196575

Imb = 1


Cmb = 1


NewDeltaT = 11

ExecutionTime = 11116.8 s  ClockTime = 12644 s

Time = 21252

Solving Pressure Equation
DICPCG:  Solving for po, Initial residual = 0.000166372, Final residual = 9.83749e-06, No Iterations 118
Solving Saturation Equation
diagonal:  Solving for sw, Initial residual = 0, Final residual = 0, No Iterations 0
Q_inj = 196575
Q_prod = 196575
qw_prod = -0
qo_prod = -196575

Imb = 1


Cmb = 1


NewDeltaT = 11

ExecutionTime = 11121.5 s  ClockTime = 12649 s

Time = 21263

Solving Pressure Equation
DICPCG:  Solving for po, Initial residual = 0.000166398, Final residual = 9.50012e-06, No Iterations 119
Solving Saturation Equation
diagonal:  Solving for sw, Initial residual = 0, Final residual = 0, No Iterations 0
Q_inj = 196575
Q_prod = 196575
qw_prod = -0
qo_prod = -196575

Imb = 1


Cmb = 1


NewDeltaT = 11

ExecutionTime = 11127.1 s  ClockTime = 12656 s

Time = 21274

Solving Pressure Equation
DICPCG:  Solving for po, Initial residual = 0.000166161, Final residual = 9.97903e-06, No Iterations 119
Solving Saturation Equation
diagonal:  Solving for sw, Initial residual = 0, Final residual = 0, No Iterations 0
Q_inj = 196575
Q_prod = 196575
qw_prod = -0
qo_prod = -196575

Imb = 1


Cmb = 1


NewDeltaT = 11

ExecutionTime = 11131.9 s  ClockTime = 12661 s

Time = 21285

Solving Pressure Equation
DICPCG:  Solving for po, Initial residual = 0.00016646, Final residual = 9.42323e-06, No Iterations 120
Solving Saturation Equation
diagonal:  Solving for sw, Initial residual = 0, Final residual = 0, No Iterations 0
Q_inj = 196575
Q_prod = 196575
qw_prod = -0
qo_prod = -196575

Imb = 1


Cmb = 1


NewDeltaT = 11

ExecutionTime = 11136.3 s  ClockTime = 12665 s

Time = 21296

Solving Pressure Equation
DICPCG:  Solving for po, Initial residual = 0.000166133, Final residual = 9.81357e-06, No Iterations 121
Solving Saturation Equation
diagonal:  Solving for sw, Initial residual = 0, Final residual = 0, No Iterations 0
Q_inj = 196575
Q_prod = 196575
qw_prod = -0
qo_prod = -196575

Imb = 1


Cmb = 1


NewDeltaT = 11

ExecutionTime = 11141.4 s  ClockTime = 12671 s

Time = 21307

Solving Pressure Equation
DICPCG:  Solving for po, Initial residual = 0.000166183, Final residual = 9.91131e-06, No Iterations 125
Solving Saturation Equation
diagonal:  Solving for sw, Initial residual = 0, Final residual = 0, No Iterations 0
Q_inj = 196575
Q_prod = 196575
qw_prod = -0
qo_prod = -196575

Imb = 1


Cmb = 1


NewDeltaT = 11

ExecutionTime = 11146.7 s  ClockTime = 12677 s

Time = 21318

Solving Pressure Equation
DICPCG:  Solving for po, Initial residual = 0.000166323, Final residual = 9.77669e-06, No Iterations 127
Solving Saturation Equation
diagonal:  Solving for sw, Initial residual = 0, Final residual = 0, No Iterations 0
Q_inj = 196575
Q_prod = 196575
qw_prod = -0
qo_prod = -196575

Imb = 1


Cmb = 1


NewDeltaT = 11

ExecutionTime = 11151.6 s  ClockTime = 12683 s

Time = 21329

Solving Pressure Equation
DICPCG:  Solving for po, Initial residual = 0.000166257, Final residual = 9.24627e-06, No Iterations 270
Solving Saturation Equation
diagonal:  Solving for sw, Initial residual = 0, Final residual = 0, No Iterations 0
Q_inj = 196575
Q_prod = 196575
qw_prod = -0
qo_prod = -196575

Imb = 1


Cmb = 1


NewDeltaT = 11

ExecutionTime = 11161.3 s  ClockTime = 12694 s

Time = 21340

Solving Pressure Equation
DICPCG:  Solving for po, Initial residual = 0.000165906, Final residual = 9.85471e-06, No Iterations 118
Solving Saturation Equation
diagonal:  Solving for sw, Initial residual = 0, Final residual = 0, No Iterations 0
Q_inj = 196575
Q_prod = 196575
qw_prod = -0
qo_prod = -196575

Imb = 1


Cmb = 1


NewDeltaT = 11

ExecutionTime = 11166 s  ClockTime = 12699 s

Time = 21351

Solving Pressure Equation
DICPCG:  Solving for po, Initial residual = 0.000165821, Final residual = 9.48667e-06, No Iterations 119
Solving Saturation Equation
diagonal:  Solving for sw, Initial residual = 0, Final residual = 0, No Iterations 0
Q_inj = 196575
Q_prod = 196575
qw_prod = -0
qo_prod = -196575

Imb = 1


Cmb = 1


NewDeltaT = 11

ExecutionTime = 11170.8 s  ClockTime = 12704 s

Time = 21362

Solving Pressure Equation
DICPCG:  Solving for po, Initial residual = 0.000165658, Final residual = 9.99763e-06, No Iterations 119
Solving Saturation Equation
diagonal:  Solving for sw, Initial residual = 0, Final residual = 0, No Iterations 0
Q_inj = 196575
Q_prod = 196575
qw_prod = -0
qo_prod = -196575

Imb = 1


Cmb = 1


NewDeltaT = 11

ExecutionTime = 11176.6 s  ClockTime = 12710 s

Time = 21373

Solving Pressure Equation
DICPCG:  Solving for po, Initial residual = 0.000165942, Final residual = 9.52725e-06, No Iterations 120
Solving Saturation Equation
diagonal:  Solving for sw, Initial residual = 0, Final residual = 0, No Iterations 0
Q_inj = 196575
Q_prod = 196575
qw_prod = -0
qo_prod = -196575

Imb = 1


Cmb = 1


NewDeltaT = 11

ExecutionTime = 11181.4 s  ClockTime = 12716 s

Time = 21384

Solving Pressure Equation
DICPCG:  Solving for po, Initial residual = 0.000165576, Final residual = 9.81653e-06, No Iterations 121
Solving Saturation Equation
diagonal:  Solving for sw, Initial residual = 0, Final residual = 0, No Iterations 0
Q_inj = 196575
Q_prod = 196575
qw_prod = -0
qo_prod = -196575

Imb = 1


Cmb = 1


NewDeltaT = 11

ExecutionTime = 11187.4 s  ClockTime = 12722 s

Time = 21395

Solving Pressure Equation
DICPCG:  Solving for po, Initial residual = 0.000165715, Final residual = 9.93249e-06, No Iterations 125
Solving Saturation Equation
diagonal:  Solving for sw, Initial residual = 0, Final residual = 0, No Iterations 0
Q_inj = 196575
Q_prod = 196575
qw_prod = -0
qo_prod = -196575

Imb = 1


Cmb = 1


NewDeltaT = 11

ExecutionTime = 11192.5 s  ClockTime = 12728 s

Time = 21406

Solving Pressure Equation
DICPCG:  Solving for po, Initial residual = 0.000165938, Final residual = 9.90335e-06, No Iterations 127
Solving Saturation Equation
diagonal:  Solving for sw, Initial residual = 0, Final residual = 0, No Iterations 0
Q_inj = 196575
Q_prod = 196575
qw_prod = -0
qo_prod = -196575

Imb = 1


Cmb = 1


NewDeltaT = 11

ExecutionTime = 11197.3 s  ClockTime = 12733 s

Time = 21417

Solving Pressure Equation
DICPCG:  Solving for po, Initial residual = 0.000165827, Final residual = 9.93282e-06, No Iterations 129
Solving Saturation Equation
diagonal:  Solving for sw, Initial residual = 0, Final residual = 0, No Iterations 0
Q_inj = 196575
Q_prod = 196575
qw_prod = -0
qo_prod = -196575

Imb = 1


Cmb = 1


NewDeltaT = 11

ExecutionTime = 11203.3 s  ClockTime = 12740 s

Time = 21428

Solving Pressure Equation
DICPCG:  Solving for po, Initial residual = 0.000165995, Final residual = 9.16183e-06, No Iterations 270
Solving Saturation Equation
diagonal:  Solving for sw, Initial residual = 0, Final residual = 0, No Iterations 0
Q_inj = 196575
Q_prod = 196575
qw_prod = -0
qo_prod = -196575

Imb = 1


Cmb = 1


NewDeltaT = 11

ExecutionTime = 11212 s  ClockTime = 12749 s

Time = 21439

Solving Pressure Equation
DICPCG:  Solving for po, Initial residual = 0.000165435, Final residual = 9.7603e-06, No Iterations 118
Solving Saturation Equation
diagonal:  Solving for sw, Initial residual = 0, Final residual = 0, No Iterations 0
Q_inj = 196575
Q_prod = 196575
qw_prod = -0
qo_prod = -196575

Imb = 1


Cmb = 1


NewDeltaT = 11

ExecutionTime = 11216.8 s  ClockTime = 12754 s

Time = 21450

Solving Pressure Equation
DICPCG:  Solving for po, Initial residual = 0.00016543, Final residual = 9.39146e-06, No Iterations 119
Solving Saturation Equation
diagonal:  Solving for sw, Initial residual = 0, Final residual = 0, No Iterations 0
Q_inj = 196575
Q_prod = 196575
qw_prod = -0
qo_prod = -196575

Imb = 1


Cmb = 1


NewDeltaT = 11

ExecutionTime = 11222.4 s  ClockTime = 12761 s

Time = 21461

Solving Pressure Equation
DICPCG:  Solving for po, Initial residual = 0.000165277, Final residual = 9.89408e-06, No Iterations 119
Solving Saturation Equation
diagonal:  Solving for sw, Initial residual = 0, Final residual = 0, No Iterations 0
Q_inj = 196575
Q_prod = 196575
qw_prod = -0
qo_prod = -196575

Imb = 1


Cmb = 1


NewDeltaT = 11

ExecutionTime = 11227 s  ClockTime = 12766 s

Time = 21472

Solving Pressure Equation
DICPCG:  Solving for po, Initial residual = 0.000165559, Final residual = 9.43179e-06, No Iterations 120
Solving Saturation Equation
diagonal:  Solving for sw, Initial residual = 0, Final residual = 0, No Iterations 0
Q_inj = 196575
Q_prod = 196575
qw_prod = -0
qo_prod = -196575

Imb = 1


Cmb = 1


NewDeltaT = 11

ExecutionTime = 11232.7 s  ClockTime = 12773 s

Time = 21483

Solving Pressure Equation
DICPCG:  Solving for po, Initial residual = 0.000165264, Final residual = 9.98601e-06, No Iterations 120
Solving Saturation Equation
diagonal:  Solving for sw, Initial residual = 0, Final residual = 0, No Iterations 0
Q_inj = 196575
Q_prod = 196575
qw_prod = -0
qo_prod = -196575

Imb = 1


Cmb = 1


NewDeltaT = 11

ExecutionTime = 11237.1 s  ClockTime = 12778 s

Time = 21494

Solving Pressure Equation
DICPCG:  Solving for po, Initial residual = 0.000165573, Final residual = 9.83779e-06, No Iterations 125
Solving Saturation Equation
diagonal:  Solving for sw, Initial residual = 0, Final residual = 0, No Iterations 0
Q_inj = 196575
Q_prod = 196575
qw_prod = -0
qo_prod = -196575

Imb = 1


Cmb = 1


NewDeltaT = 11

ExecutionTime = 11241.6 s  ClockTime = 12783 s

Time = 21505

Solving Pressure Equation
