/*---------------------------------------------------------------------------*\
| =========                 |                                                 |
| \\      /  F ield         | OpenFOAM: The Open Source CFD Toolbox           |
|  \\    /   O peration     | Version:  1.6                                   |
|   \\  /    A nd           | Web:      www.OpenFOAM.org                      |
|    \\/     M anipulation  |                                                 |
\*---------------------------------------------------------------------------*/
Build  : 1.6-f802ff2d6c5a
Exec   : blockMesh
Date   : Feb 24 2010
Time   : 13:21:07
Host   : pc-rafael
PID    : 3950
Case   : /media/Arquivos/FOAMwork/done/HeatTransient/case3D
nProcs : 1
SigFpe : Enabling floating point exception trapping (FOAM_SIGFPE).

// * * * * * * * * * * * * * * * * * * * * * * * * * * * * * * * * * * * * * //
Create time


Creating block mesh from
    "/media/Arquivos/FOAMwork/done/HeatTransient/case3D/constant/polyMesh/blockMeshDict"


Creating blockCorners

Creating curved edges

Creating blocks

Creating patches

Creating block mesh topology

Default patch type set to empty

Check block mesh topology

	Basic statistics
		Number of internal faces : 0
		Number of boundary faces : 6
		Number of defined boundary faces : 6
		Number of undefined boundary faces : 0

	Checking patch -> block consistency

Creating block offsets

Creating merge list .

Creating points with scale 1

Creating cells

Creating patches

Creating mesh from block mesh

Default patch type set to empty

Writing polyMesh

End
/*---------------------------------------------------------------------------*\
| =========                 |                                                 |
| \\      /  F ield         | OpenFOAM: The Open Source CFD Toolbox           |
|  \\    /   O peration     | Version:  1.6                                   |
|   \\  /    A nd           | Web:      www.OpenFOAM.org                      |
|    \\/     M anipulation  |                                                 |
\*---------------------------------------------------------------------------*/
Build  : 1.6-f802ff2d6c5a
Exec   : HeatTransient
Date   : Feb 24 2010
Time   : 13:21:09
Host   : pc-rafael
PID    : 3951
Case   : /media/Arquivos/FOAMwork/done/HeatTransient/case3D
nProcs : 1
SigFpe : Enabling floating point exception trapping (FOAM_SIGFPE).

// * * * * * * * * * * * * * * * * * * * * * * * * * * * * * * * * * * * * * //
Create time

Create mesh for time = 0

// using new solver syntax:
T
{
    solver          PCG;
    preconditioner  DIC;
    tolerance       1e-06;
    relTol          0;
}

Reading field T

Reading field K

Reading field Q

Reading field alpha


Starting time loop

Time = 0.1

DICPCG:  Solving for T, Initial residual = 1, Final residual = 9.35181e-07, No Iterations 48
ExecutionTime = 1.11 s  ClockTime = 2 s

Time = 0.2

DICPCG:  Solving for T, Initial residual = 0.0358671, Final residual = 7.5741e-07, No Iterations 42
ExecutionTime = 1.44 s  ClockTime = 2 s

Time = 0.3

DICPCG:  Solving for T, Initial residual = 0.0171193, Final residual = 8.31793e-07, No Iterations 38
ExecutionTime = 1.74 s  ClockTime = 2 s

Time = 0.4

DICPCG:  Solving for T, Initial residual = 0.0124323, Final residual = 9.1423e-07, No Iterations 35
ExecutionTime = 2.03 s  ClockTime = 3 s

Time = 0.5

DICPCG:  Solving for T, Initial residual = 0.0101454, Final residual = 8.37583e-07, No Iterations 33
ExecutionTime = 2.32 s  ClockTime = 3 s

Time = 0.6

DICPCG:  Solving for T, Initial residual = 0.00874084, Final residual = 6.87549e-07, No Iterations 32
ExecutionTime = 2.57 s  ClockTime = 3 s

Time = 0.7

DICPCG:  Solving for T, Initial residual = 0.00777152, Final residual = 8.14076e-07, No Iterations 30
ExecutionTime = 2.83 s  ClockTime = 4 s

Time = 0.8

DICPCG:  Solving for T, Initial residual = 0.00705232, Final residual = 7.26095e-07, No Iterations 29
ExecutionTime = 3.07 s  ClockTime = 4 s

Time = 0.9

DICPCG:  Solving for T, Initial residual = 0.00649124, Final residual = 9.20464e-07, No Iterations 28
ExecutionTime = 3.34 s  ClockTime = 4 s

Time = 1

DICPCG:  Solving for T, Initial residual = 0.00603672, Final residual = 9.64659e-07, No Iterations 27
ExecutionTime = 3.58 s  ClockTime = 5 s

Time = 1.1

DICPCG:  Solving for T, Initial residual = 0.00565737, Final residual = 8.38127e-07, No Iterations 26
ExecutionTime = 3.82 s  ClockTime = 5 s

Time = 1.2

DICPCG:  Solving for T, Initial residual = 0.00533287, Final residual = 7.05716e-07, No Iterations 26
ExecutionTime = 4.05 s  ClockTime = 5 s

Time = 1.3

DICPCG:  Solving for T, Initial residual = 0.00504958, Final residual = 6.20815e-07, No Iterations 26
ExecutionTime = 4.28 s  ClockTime = 5 s

Time = 1.4

DICPCG:  Solving for T, Initial residual = 0.00479784, Final residual = 9.42428e-07, No Iterations 25
ExecutionTime = 4.5 s  ClockTime = 6 s

Time = 1.5

DICPCG:  Solving for T, Initial residual = 0.00457103, Final residual = 8.43109e-07, No Iterations 25
ExecutionTime = 4.73 s  ClockTime = 6 s

Time = 1.6

DICPCG:  Solving for T, Initial residual = 0.00436407, Final residual = 7.3933e-07, No Iterations 25
ExecutionTime = 4.95 s  ClockTime = 6 s

Time = 1.7

DICPCG:  Solving for T, Initial residual = 0.00417333, Final residual = 8.28611e-07, No Iterations 24
ExecutionTime = 5.17 s  ClockTime = 6 s

Time = 1.8

DICPCG:  Solving for T, Initial residual = 0.0039962, Final residual = 8.24328e-07, No Iterations 23
ExecutionTime = 5.39 s  ClockTime = 7 s

Time = 1.9

DICPCG:  Solving for T, Initial residual = 0.00383034, Final residual = 9.54062e-07, No Iterations 22
ExecutionTime = 5.59 s  ClockTime = 7 s

Time = 2

DICPCG:  Solving for T, Initial residual = 0.00367443, Final residual = 8.28619e-07, No Iterations 22
ExecutionTime = 5.8 s  ClockTime = 7 s

Time = 2.1

DICPCG:  Solving for T, Initial residual = 0.00352698, Final residual = 7.40606e-07, No Iterations 22
ExecutionTime = 6 s  ClockTime = 7 s

Time = 2.2

DICPCG:  Solving for T, Initial residual = 0.00338718, Final residual = 9.4951e-07, No Iterations 21
ExecutionTime = 6.2 s  ClockTime = 8 s

Time = 2.3

DICPCG:  Solving for T, Initial residual = 0.00325423, Final residual = 8.86744e-07, No Iterations 21
ExecutionTime = 6.41 s  ClockTime = 8 s

Time = 2.4

DICPCG:  Solving for T, Initial residual = 0.00312739, Final residual = 8.37541e-07, No Iterations 21
ExecutionTime = 6.62 s  ClockTime = 8 s

Time = 2.5

DICPCG:  Solving for T, Initial residual = 0.00300633, Final residual = 7.96382e-07, No Iterations 21
ExecutionTime = 6.82 s  ClockTime = 8 s

Time = 2.6

DICPCG:  Solving for T, Initial residual = 0.00289045, Final residual = 7.60182e-07, No Iterations 21
ExecutionTime = 7.01 s  ClockTime = 9 s

Time = 2.7

DICPCG:  Solving for T, Initial residual = 0.00277947, Final residual = 7.27308e-07, No Iterations 21
ExecutionTime = 7.21 s  ClockTime = 9 s

Time = 2.8

DICPCG:  Solving for T, Initial residual = 0.00267313, Final residual = 6.96819e-07, No Iterations 21
ExecutionTime = 7.41 s  ClockTime = 9 s

Time = 2.9

DICPCG:  Solving for T, Initial residual = 0.00257107, Final residual = 9.69626e-07, No Iterations 20
ExecutionTime = 7.6 s  ClockTime = 9 s

Time = 3

DICPCG:  Solving for T, Initial residual = 0.00247307, Final residual = 9.25198e-07, No Iterations 20
ExecutionTime = 7.8 s  ClockTime = 10 s

Time = 3.1

DICPCG:  Solving for T, Initial residual = 0.00237898, Final residual = 8.85144e-07, No Iterations 20
ExecutionTime = 8.01 s  ClockTime = 10 s

Time = 3.2

DICPCG:  Solving for T, Initial residual = 0.00228858, Final residual = 8.4731e-07, No Iterations 20
ExecutionTime = 8.19 s  ClockTime = 10 s

Time = 3.3

DICPCG:  Solving for T, Initial residual = 0.00220168, Final residual = 8.10853e-07, No Iterations 20
ExecutionTime = 8.38 s  ClockTime = 10 s

Time = 3.4

DICPCG:  Solving for T, Initial residual = 0.00211813, Final residual = 7.75394e-07, No Iterations 20
ExecutionTime = 8.58 s  ClockTime = 11 s

Time = 3.5

DICPCG:  Solving for T, Initial residual = 0.00203782, Final residual = 7.40705e-07, No Iterations 20
ExecutionTime = 8.78 s  ClockTime = 11 s

Time = 3.6

DICPCG:  Solving for T, Initial residual = 0.00196057, Final residual = 7.06568e-07, No Iterations 20
ExecutionTime = 8.98 s  ClockTime = 11 s

Time = 3.7

DICPCG:  Solving for T, Initial residual = 0.00188627, Final residual = 9.60821e-07, No Iterations 19
ExecutionTime = 9.16 s  ClockTime = 11 s

Time = 3.8

DICPCG:  Solving for T, Initial residual = 0.0018148, Final residual = 9.10858e-07, No Iterations 19
ExecutionTime = 9.35 s  ClockTime = 11 s

Time = 3.9

DICPCG:  Solving for T, Initial residual = 0.00174604, Final residual = 8.55677e-07, No Iterations 19
ExecutionTime = 9.53 s  ClockTime = 12 s

Time = 4

DICPCG:  Solving for T, Initial residual = 0.00167991, Final residual = 7.99475e-07, No Iterations 19
ExecutionTime = 9.72 s  ClockTime = 12 s

Time = 4.1

DICPCG:  Solving for T, Initial residual = 0.00161627, Final residual = 7.42843e-07, No Iterations 19
ExecutionTime = 9.91 s  ClockTime = 12 s

Time = 4.2

DICPCG:  Solving for T, Initial residual = 0.00155504, Final residual = 6.86082e-07, No Iterations 19
ExecutionTime = 10.1 s  ClockTime = 12 s

Time = 4.3

DICPCG:  Solving for T, Initial residual = 0.00149614, Final residual = 9.08875e-07, No Iterations 18
ExecutionTime = 10.3 s  ClockTime = 13 s

Time = 4.4

DICPCG:  Solving for T, Initial residual = 0.00143945, Final residual = 9.48565e-07, No Iterations 17
ExecutionTime = 10.47 s  ClockTime = 13 s

Time = 4.5

DICPCG:  Solving for T, Initial residual = 0.00138492, Final residual = 9.71414e-07, No Iterations 15
ExecutionTime = 10.64 s  ClockTime = 13 s

Time = 4.6

DICPCG:  Solving for T, Initial residual = 0.00133244, Final residual = 8.72101e-07, No Iterations 15
ExecutionTime = 10.8 s  ClockTime = 13 s

Time = 4.7

DICPCG:  Solving for T, Initial residual = 0.00128195, Final residual = 7.89106e-07, No Iterations 15
ExecutionTime = 10.96 s  ClockTime = 13 s

Time = 4.8

DICPCG:  Solving for T, Initial residual = 0.00123337, Final residual = 7.17514e-07, No Iterations 15
ExecutionTime = 11.14 s  ClockTime = 14 s

Time = 4.9

DICPCG:  Solving for T, Initial residual = 0.00118663, Final residual = 6.5654e-07, No Iterations 15
ExecutionTime = 11.31 s  ClockTime = 14 s

Time = 5

DICPCG:  Solving for T, Initial residual = 0.00114165, Final residual = 6.04842e-07, No Iterations 15
ExecutionTime = 11.47 s  ClockTime = 14 s

End

