/*---------------------------------------------------------------------------*\
| =========                 |                                                 |
| \\      /  F ield         | OpenFOAM: The Open Source CFD Toolbox           |
|  \\    /   O peration     | Version:  2.1.0                                 |
|   \\  /    A nd           | Web:      www.OpenFOAM.org                      |
|    \\/     M anipulation  |                                                 |
\*---------------------------------------------------------------------------*/
Build  : 2.1.0-0bc225064152
Exec   : IMPES
Date   : May 17 2012
Time   : 00:19:49
Host   : "rafael-vb"
PID    : 18267
Case   : /home/rafael/OpenFOAM/rafael-2.1.0/SimulatorIMPES/v104/CasesDiss/QUA
nProcs : 1
sigFpe : Enabling floating point exception trapping (FOAM_SIGFPE).
fileModificationChecking : Monitoring run-time modified files using timeStampMaster
allowSystemOperations : Disallowing user-supplied system call operations

// * * * * * * * * * * * * * * * * * * * * * * * * * * * * * * * * * * * * * //
Create time

Create mesh for time = 32120

Reading fields                     [  OK  ]
Reading problem parameters         [  OK  ]
Creating tables                    [  OK  ]
Initializating problem fields      [  OK  ]
Setting sources                    [  OK  ]
Calculationg equation coefficients [  OK  ]

Starting time loop

Time = 32131

Solving Pressure Equation
DICPCG:  Solving for po, Initial residual = 1, Final residual = 8.33831e-06, No Iterations 73
Solving Saturation Equation
diagonal:  Solving for sw, Initial residual = 0, Final residual = 0, No Iterations 0
Q_inj = 196575
Q_prod = 196575
qw_prod = -52450.2
qo_prod = -144125

Imb = 1.00092


Cmb = 0.000342664


NewDeltaT = 11

ExecutionTime = 0.61 s  ClockTime = 1 s

Time = 32142

Solving Pressure Equation
DICPCG:  Solving for po, Initial residual = 0.000140041, Final residual = 6.72555e-06, No Iterations 50
Solving Saturation Equation
diagonal:  Solving for sw, Initial residual = 0, Final residual = 0, No Iterations 0
Q_inj = 196575
Q_prod = 196575
qw_prod = -52584.3
qo_prod = -143991

Imb = 1.00093


Cmb = 0.000685416


NewDeltaT = 11

ExecutionTime = 0.94 s  ClockTime = 2 s

Time = 32153

Solving Pressure Equation
DICPCG:  Solving for po, Initial residual = 0.000139862, Final residual = 7.85586e-06, No Iterations 48
Solving Saturation Equation
diagonal:  Solving for sw, Initial residual = 0, Final residual = 0, No Iterations 0
Q_inj = 196575
Q_prod = 196575
qw_prod = -52716.8
qo_prod = -143858

Imb = 1.00092


Cmb = 0.00102824


NewDeltaT = 11

ExecutionTime = 1.17 s  ClockTime = 2 s

Time = 32164

Solving Pressure Equation
DICPCG:  Solving for po, Initial residual = 0.000139616, Final residual = 6.20477e-06, No Iterations 53
Solving Saturation Equation
diagonal:  Solving for sw, Initial residual = 0, Final residual = 0, No Iterations 0
Q_inj = 196575
Q_prod = 196575
qw_prod = -52850.4
qo_prod = -143725

Imb = 1.00093


Cmb = 0.00137116


NewDeltaT = 11

ExecutionTime = 1.4 s  ClockTime = 2 s

Time = 32175

Solving Pressure Equation
DICPCG:  Solving for po, Initial residual = 0.000139525, Final residual = 9.68776e-06, No Iterations 47
Solving Saturation Equation
diagonal:  Solving for sw, Initial residual = 0, Final residual = 0, No Iterations 0
Q_inj = 196575
Q_prod = 196575
qw_prod = -52982.6
qo_prod = -143592

Imb = 1.00092


Cmb = 0.00171415


NewDeltaT = 11

ExecutionTime = 1.56 s  ClockTime = 2 s

Time = 32186

Solving Pressure Equation
DICPCG:  Solving for po, Initial residual = 0.000139682, Final residual = 6.90019e-06, No Iterations 53
Solving Saturation Equation
diagonal:  Solving for sw, Initial residual = 0, Final residual = 0, No Iterations 0
Q_inj = 196575
Q_prod = 196575
qw_prod = -53115.8
qo_prod = -143459

Imb = 1.00093


Cmb = 0.00205724


NewDeltaT = 11

ExecutionTime = 1.72 s  ClockTime = 3 s

Time = 32197

Solving Pressure Equation
DICPCG:  Solving for po, Initial residual = 0.000139208, Final residual = 9.10349e-06, No Iterations 58
Solving Saturation Equation
diagonal:  Solving for sw, Initial residual = 0, Final residual = 0, No Iterations 0
Q_inj = 196575
Q_prod = 196575
qw_prod = -53247.6
qo_prod = -143327

Imb = 1.00092


Cmb = 0.00240038


NewDeltaT = 11

ExecutionTime = 1.89 s  ClockTime = 3 s

Time = 32208

Solving Pressure Equation
DICPCG:  Solving for po, Initial residual = 0.000139194, Final residual = 7.15089e-06, No Iterations 56
Solving Saturation Equation
diagonal:  Solving for sw, Initial residual = 0, Final residual = 0, No Iterations 0
Q_inj = 196575
Q_prod = 196575
qw_prod = -53380.4
qo_prod = -143195

Imb = 1.00093


Cmb = 0.00274364


NewDeltaT = 11

ExecutionTime = 2.04 s  ClockTime = 3 s

Time = 32219

Solving Pressure Equation
DICPCG:  Solving for po, Initial residual = 0.000138856, Final residual = 8.5003e-06, No Iterations 58
Solving Saturation Equation
diagonal:  Solving for sw, Initial residual = 0, Final residual = 0, No Iterations 0
Q_inj = 196575
Q_prod = 196575
qw_prod = -53511.8
qo_prod = -143063

Imb = 1.00092


Cmb = 0.00308695


NewDeltaT = 11

ExecutionTime = 2.2 s  ClockTime = 3 s

Time = 32230

Solving Pressure Equation
DICPCG:  Solving for po, Initial residual = 0.000138788, Final residual = 6.3237e-06, No Iterations 56
Solving Saturation Equation
diagonal:  Solving for sw, Initial residual = 0, Final residual = 0, No Iterations 0
Q_inj = 196575
Q_prod = 196575
qw_prod = -53644.3
qo_prod = -142931

Imb = 1.00093


Cmb = 0.00343037


NewDeltaT = 11

ExecutionTime = 2.35 s  ClockTime = 3 s

Time = 32241

Solving Pressure Equation
DICPCG:  Solving for po, Initial residual = 0.000138443, Final residual = 7.10925e-06, No Iterations 58
Solving Saturation Equation
diagonal:  Solving for sw, Initial residual = 0, Final residual = 0, No Iterations 0
Q_inj = 196575
Q_prod = 196575
qw_prod = -53775.3
qo_prod = -142800

Imb = 1.00092


Cmb = 0.00377384


NewDeltaT = 11

ExecutionTime = 2.5 s  ClockTime = 4 s

Time = 32252

Solving Pressure Equation
DICPCG:  Solving for po, Initial residual = 0.000138351, Final residual = 5.68629e-06, No Iterations 56
Solving Saturation Equation
diagonal:  Solving for sw, Initial residual = 0, Final residual = 0, No Iterations 0
Q_inj = 196575
Q_prod = 196575
qw_prod = -53907.4
qo_prod = -142668

Imb = 1.00093


Cmb = 0.00411742


NewDeltaT = 11

ExecutionTime = 2.65 s  ClockTime = 4 s

Time = 32263

Solving Pressure Equation
DICPCG:  Solving for po, Initial residual = 0.000138039, Final residual = 9.50164e-06, No Iterations 50
Solving Saturation Equation
diagonal:  Solving for sw, Initial residual = 0, Final residual = 0, No Iterations 0
Q_inj = 196575
Q_prod = 196575
qw_prod = -54038.2
qo_prod = -142537

Imb = 1.00092


Cmb = 0.00446105


NewDeltaT = 11

ExecutionTime = 2.8 s  ClockTime = 4 s

Time = 32274

Solving Pressure Equation
DICPCG:  Solving for po, Initial residual = 0.000138061, Final residual = 6.99103e-06, No Iterations 58
Solving Saturation Equation
diagonal:  Solving for sw, Initial residual = 0, Final residual = 0, No Iterations 0
Q_inj = 196575
Q_prod = 196575
qw_prod = -54169.9
qo_prod = -142405

Imb = 1.00092


Cmb = 0.00480481


NewDeltaT = 11

ExecutionTime = 2.96 s  ClockTime = 4 s

Time = 32285

Solving Pressure Equation
DICPCG:  Solving for po, Initial residual = 0.000137841, Final residual = 9.18422e-06, No Iterations 55
Solving Saturation Equation
diagonal:  Solving for sw, Initial residual = 0, Final residual = 0, No Iterations 0
Q_inj = 196575
Q_prod = 196575
qw_prod = -54300.3
qo_prod = -142275

Imb = 1.00092


Cmb = 0.0051486


NewDeltaT = 11

ExecutionTime = 3.11 s  ClockTime = 4 s

Time = 32296

Solving Pressure Equation
DICPCG:  Solving for po, Initial residual = 0.000137224, Final residual = 9.32844e-06, No Iterations 51
Solving Saturation Equation
diagonal:  Solving for sw, Initial residual = 0, Final residual = 0, No Iterations 0
Q_inj = 196575
Q_prod = 196575
qw_prod = -54431.7
qo_prod = -142143

Imb = 1.00092


Cmb = 0.00549252


NewDeltaT = 11

ExecutionTime = 3.3 s  ClockTime = 5 s

Time = 32307

Solving Pressure Equation
DICPCG:  Solving for po, Initial residual = 0.000137509, Final residual = 5.97337e-06, No Iterations 56
Solving Saturation Equation
diagonal:  Solving for sw, Initial residual = 0, Final residual = 0, No Iterations 0
Q_inj = 196575
Q_prod = 196575
qw_prod = -54561.8
qo_prod = -142013

Imb = 1.00092


Cmb = 0.00583647


NewDeltaT = 11

ExecutionTime = 3.61 s  ClockTime = 5 s

Time = 32318

Solving Pressure Equation
DICPCG:  Solving for po, Initial residual = 0.000137261, Final residual = 8.62553e-06, No Iterations 51
Solving Saturation Equation
diagonal:  Solving for sw, Initial residual = 0, Final residual = 0, No Iterations 0
Q_inj = 196575
Q_prod = 196575
qw_prod = -54692.9
qo_prod = -141882

Imb = 1.00092


Cmb = 0.00618056


NewDeltaT = 11

ExecutionTime = 3.92 s  ClockTime = 6 s

Time = 32329

Solving Pressure Equation
DICPCG:  Solving for po, Initial residual = 0.000137118, Final residual = 9.87404e-06, No Iterations 58
Solving Saturation Equation
diagonal:  Solving for sw, Initial residual = 0, Final residual = 0, No Iterations 0
Q_inj = 196575
Q_prod = 196575
qw_prod = -54822.7
qo_prod = -141752

Imb = 1.00092


Cmb = 0.00652468


NewDeltaT = 11

ExecutionTime = 4.17 s  ClockTime = 6 s

Time = 32340

Solving Pressure Equation
DICPCG:  Solving for po, Initial residual = 0.00013705, Final residual = 9.71961e-06, No Iterations 55
Solving Saturation Equation
diagonal:  Solving for sw, Initial residual = 0, Final residual = 0, No Iterations 0
Q_inj = 196575
Q_prod = 196575
qw_prod = -54953.6
qo_prod = -141621

Imb = 1.00092


Cmb = 0.00686893


NewDeltaT = 11

ExecutionTime = 4.34 s  ClockTime = 6 s

Time = 32351

Solving Pressure Equation
DICPCG:  Solving for po, Initial residual = 0.000136494, Final residual = 6.67519e-06, No Iterations 58
Solving Saturation Equation
diagonal:  Solving for sw, Initial residual = 0, Final residual = 0, No Iterations 0
Q_inj = 196575
Q_prod = 196575
qw_prod = -55083.1
qo_prod = -141492

Imb = 1.00092


Cmb = 0.00721322


NewDeltaT = 11

ExecutionTime = 4.53 s  ClockTime = 6 s

Time = 32362

Solving Pressure Equation
DICPCG:  Solving for po, Initial residual = 0.000136641, Final residual = 8.50933e-06, No Iterations 51
Solving Saturation Equation
diagonal:  Solving for sw, Initial residual = 0, Final residual = 0, No Iterations 0
Q_inj = 196575
Q_prod = 196575
qw_prod = -55213.6
qo_prod = -141361

Imb = 1.00092


Cmb = 0.00755764


NewDeltaT = 11

ExecutionTime = 4.68 s  ClockTime = 7 s

Time = 32373

Solving Pressure Equation
DICPCG:  Solving for po, Initial residual = 0.000136681, Final residual = 5.77331e-06, No Iterations 56
Solving Saturation Equation
diagonal:  Solving for sw, Initial residual = 0, Final residual = 0, No Iterations 0
Q_inj = 196575
Q_prod = 196575
qw_prod = -55342.9
qo_prod = -141232

Imb = 1.00092


Cmb = 0.00790209


NewDeltaT = 11

ExecutionTime = 4.85 s  ClockTime = 7 s

Time = 32384

Solving Pressure Equation
DICPCG:  Solving for po, Initial residual = 0.000136231, Final residual = 8.25222e-06, No Iterations 50
Solving Saturation Equation
diagonal:  Solving for sw, Initial residual = 0, Final residual = 0, No Iterations 0
Q_inj = 196575
Q_prod = 196575
qw_prod = -55473.1
qo_prod = -141102

Imb = 1.00092


Cmb = 0.00824669


NewDeltaT = 11

ExecutionTime = 5.02 s  ClockTime = 7 s

Time = 32395

Solving Pressure Equation
DICPCG:  Solving for po, Initial residual = 0.000136156, Final residual = 9.68267e-06, No Iterations 57
Solving Saturation Equation
diagonal:  Solving for sw, Initial residual = 0, Final residual = 0, No Iterations 0
Q_inj = 196575
Q_prod = 196575
qw_prod = -55602.1
qo_prod = -140973

Imb = 1.00091


Cmb = 0.0085913


NewDeltaT = 11

ExecutionTime = 5.15 s  ClockTime = 7 s

Time = 32406

Solving Pressure Equation
DICPCG:  Solving for po, Initial residual = 0.000136366, Final residual = 7.96039e-06, No Iterations 56
Solving Saturation Equation
diagonal:  Solving for sw, Initial residual = 0, Final residual = 0, No Iterations 0
Q_inj = 196575
Q_prod = 196575
qw_prod = -55732.2
qo_prod = -140843

Imb = 1.00092


Cmb = 0.00893607


NewDeltaT = 11

ExecutionTime = 5.31 s  ClockTime = 7 s

Time = 32417

Solving Pressure Equation
DICPCG:  Solving for po, Initial residual = 0.000135854, Final residual = 8.27002e-06, No Iterations 63
Solving Saturation Equation
diagonal:  Solving for sw, Initial residual = 0, Final residual = 0, No Iterations 0
Q_inj = 196575
Q_prod = 196575
qw_prod = -55860.8
qo_prod = -140714

Imb = 1.00091


Cmb = 0.00928084


NewDeltaT = 11

ExecutionTime = 5.48 s  ClockTime = 8 s

Time = 32428

Solving Pressure Equation
DICPCG:  Solving for po, Initial residual = 0.000135857, Final residual = 8.63908e-06, No Iterations 51
Solving Saturation Equation
diagonal:  Solving for sw, Initial residual = 0, Final residual = 0, No Iterations 0
Q_inj = 196575
Q_prod = 196575
qw_prod = -55990.6
qo_prod = -140584

Imb = 1.00092


Cmb = 0.00962579


NewDeltaT = 11

ExecutionTime = 5.62 s  ClockTime = 8 s

Time = 32439

Solving Pressure Equation
DICPCG:  Solving for po, Initial residual = 0.000135811, Final residual = 5.77399e-06, No Iterations 56
Solving Saturation Equation
diagonal:  Solving for sw, Initial residual = 0, Final residual = 0, No Iterations 0
Q_inj = 196575
Q_prod = 196575
qw_prod = -56119.1
qo_prod = -140456

Imb = 1.00091


Cmb = 0.00997073


NewDeltaT = 11

ExecutionTime = 5.77 s  ClockTime = 8 s

Time = 32450

Solving Pressure Equation
DICPCG:  Solving for po, Initial residual = 0.000135237, Final residual = 7.85729e-06, No Iterations 50
Solving Saturation Equation
diagonal:  Solving for sw, Initial residual = 0, Final residual = 0, No Iterations 0
Q_inj = 196575
Q_prod = 196575
qw_prod = -56248.7
qo_prod = -140326

Imb = 1.00092


Cmb = 0.0103159


NewDeltaT = 11

ExecutionTime = 5.93 s  ClockTime = 8 s

Time = 32461

Solving Pressure Equation
DICPCG:  Solving for po, Initial residual = 0.000135156, Final residual = 7.84266e-06, No Iterations 58
Solving Saturation Equation
diagonal:  Solving for sw, Initial residual = 0, Final residual = 0, No Iterations 0
Q_inj = 196575
Q_prod = 196575
qw_prod = -56376.9
qo_prod = -140198

Imb = 1.00091


Cmb = 0.010661


NewDeltaT = 11

ExecutionTime = 6.1 s  ClockTime = 8 s

Time = 32472

Solving Pressure Equation
DICPCG:  Solving for po, Initial residual = 0.000135109, Final residual = 9.99177e-06, No Iterations 53
Solving Saturation Equation
diagonal:  Solving for sw, Initial residual = 0, Final residual = 0, No Iterations 0
Q_inj = 196575
Q_prod = 196575
qw_prod = -56506.2
qo_prod = -140069

Imb = 1.00092


Cmb = 0.0110063


NewDeltaT = 11

ExecutionTime = 6.31 s  ClockTime = 9 s

Time = 32483

Solving Pressure Equation
DICPCG:  Solving for po, Initial residual = 0.000135174, Final residual = 7.43761e-06, No Iterations 58
Solving Saturation Equation
diagonal:  Solving for sw, Initial residual = 0, Final residual = 0, No Iterations 0
Q_inj = 196575
Q_prod = 196575
qw_prod = -56634.2
qo_prod = -139941

Imb = 1.00091


Cmb = 0.0113515


NewDeltaT = 11

ExecutionTime = 6.51 s  ClockTime = 9 s

Time = 32494

Solving Pressure Equation
DICPCG:  Solving for po, Initial residual = 0.000134702, Final residual = 7.27685e-06, No Iterations 56
Solving Saturation Equation
diagonal:  Solving for sw, Initial residual = 0, Final residual = 0, No Iterations 0
Q_inj = 196575
Q_prod = 196575
qw_prod = -56763.3
qo_prod = -139812

Imb = 1.00092


Cmb = 0.011697


NewDeltaT = 11

ExecutionTime = 6.79 s  ClockTime = 9 s

Time = 32505

Solving Pressure Equation
DICPCG:  Solving for po, Initial residual = 0.000134505, Final residual = 8.90317e-06, No Iterations 58
Solving Saturation Equation
diagonal:  Solving for sw, Initial residual = 0, Final residual = 0, No Iterations 0
Q_inj = 196575
Q_prod = 196575
qw_prod = -56891
qo_prod = -139684

Imb = 1.00091


Cmb = 0.0120425


NewDeltaT = 11

ExecutionTime = 7.04 s  ClockTime = 10 s

Time = 32516

Solving Pressure Equation
DICPCG:  Solving for po, Initial residual = 0.000134446, Final residual = 8.94575e-06, No Iterations 53
Solving Saturation Equation
diagonal:  Solving for sw, Initial residual = 0, Final residual = 0, No Iterations 0
Q_inj = 196575
Q_prod = 196575
qw_prod = -57019.9
qo_prod = -139555

Imb = 1.00092


Cmb = 0.0123881


NewDeltaT = 11

ExecutionTime = 7.26 s  ClockTime = 10 s

Time = 32527

Solving Pressure Equation
DICPCG:  Solving for po, Initial residual = 0.000134414, Final residual = 6.46606e-06, No Iterations 58
Solving Saturation Equation
diagonal:  Solving for sw, Initial residual = 0, Final residual = 0, No Iterations 0
Q_inj = 196575
Q_prod = 196575
qw_prod = -57147.4
qo_prod = -139428

Imb = 1.00091


Cmb = 0.0127337


NewDeltaT = 11

ExecutionTime = 7.47 s  ClockTime = 10 s

Time = 32538

Solving Pressure Equation
DICPCG:  Solving for po, Initial residual = 0.000134135, Final residual = 8.23697e-06, No Iterations 51
Solving Saturation Equation
diagonal:  Solving for sw, Initial residual = 0, Final residual = 0, No Iterations 0
Q_inj = 196575
Q_prod = 196575
qw_prod = -57276.1
qo_prod = -139299

Imb = 1.00092


Cmb = 0.0130796


NewDeltaT = 11

ExecutionTime = 7.62 s  ClockTime = 10 s

Time = 32549

Solving Pressure Equation
DICPCG:  Solving for po, Initial residual = 0.000134158, Final residual = 5.60425e-06, No Iterations 56
Solving Saturation Equation
diagonal:  Solving for sw, Initial residual = 0, Final residual = 0, No Iterations 0
Q_inj = 196575
Q_prod = 196575
qw_prod = -57403.3
qo_prod = -139172

Imb = 1.00091


Cmb = 0.0134254


NewDeltaT = 11

ExecutionTime = 7.79 s  ClockTime = 11 s

Time = 32560

Solving Pressure Equation
DICPCG:  Solving for po, Initial residual = 0.000133656, Final residual = 7.46418e-06, No Iterations 50
Solving Saturation Equation
diagonal:  Solving for sw, Initial residual = 0, Final residual = 0, No Iterations 0
Q_inj = 196575
Q_prod = 196575
qw_prod = -57531.8
qo_prod = -139043

Imb = 1.00092


Cmb = 0.0137714


NewDeltaT = 11

ExecutionTime = 7.94 s  ClockTime = 11 s

Time = 32571

Solving Pressure Equation
DICPCG:  Solving for po, Initial residual = 0.000133658, Final residual = 8.14086e-06, No Iterations 53
Solving Saturation Equation
diagonal:  Solving for sw, Initial residual = 0, Final residual = 0, No Iterations 0
Q_inj = 196575
Q_prod = 196575
qw_prod = -57658.8
qo_prod = -138916

Imb = 1.00091


Cmb = 0.0141174


NewDeltaT = 11

ExecutionTime = 8.1 s  ClockTime = 11 s

Time = 32582

Solving Pressure Equation
DICPCG:  Solving for po, Initial residual = 0.000133521, Final residual = 6.44783e-06, No Iterations 58
Solving Saturation Equation
diagonal:  Solving for sw, Initial residual = 0, Final residual = 0, No Iterations 0
Q_inj = 196575
Q_prod = 196575
qw_prod = -57787.1
qo_prod = -138788

Imb = 1.00092


Cmb = 0.0144636


NewDeltaT = 11

ExecutionTime = 8.28 s  ClockTime = 11 s

Time = 32593

Solving Pressure Equation
DICPCG:  Solving for po, Initial residual = 0.000133336, Final residual = 9.33147e-06, No Iterations 50
Solving Saturation Equation
diagonal:  Solving for sw, Initial residual = 0, Final residual = 0, No Iterations 0
Q_inj = 196575
Q_prod = 196575
qw_prod = -57913.9
qo_prod = -138661

Imb = 1.00091


Cmb = 0.0148097


NewDeltaT = 11

ExecutionTime = 8.42 s  ClockTime = 11 s

Time = 32604

Solving Pressure Equation
DICPCG:  Solving for po, Initial residual = 0.000133322, Final residual = 8.77035e-06, No Iterations 53
Solving Saturation Equation
diagonal:  Solving for sw, Initial residual = 0, Final residual = 0, No Iterations 0
Q_inj = 196575
Q_prod = 196575
qw_prod = -58042
qo_prod = -138533

Imb = 1.00092


Cmb = 0.0151561


NewDeltaT = 11

ExecutionTime = 8.57 s  ClockTime = 12 s

Time = 32615

Solving Pressure Equation
DICPCG:  Solving for po, Initial residual = 0.000133235, Final residual = 8.62371e-06, No Iterations 51
Solving Saturation Equation
diagonal:  Solving for sw, Initial residual = 0, Final residual = 0, No Iterations 0
Q_inj = 196575
Q_prod = 196575
qw_prod = -58168.5
qo_prod = -138407

Imb = 1.00091


Cmb = 0.0155024


NewDeltaT = 11

ExecutionTime = 8.73 s  ClockTime = 12 s

Time = 32626

Solving Pressure Equation
DICPCG:  Solving for po, Initial residual = 0.000132967, Final residual = 7.1557e-06, No Iterations 56
Solving Saturation Equation
diagonal:  Solving for sw, Initial residual = 0, Final residual = 0, No Iterations 0
Q_inj = 196575
Q_prod = 196575
qw_prod = -58296.4
qo_prod = -138279

Imb = 1.00093


Cmb = 0.015849


NewDeltaT = 11

ExecutionTime = 8.88 s  ClockTime = 12 s

Time = 32637

Solving Pressure Equation
DICPCG:  Solving for po, Initial residual = 0.000132609, Final residual = 9.05474e-06, No Iterations 58
Solving Saturation Equation
diagonal:  Solving for sw, Initial residual = 0, Final residual = 0, No Iterations 0
Q_inj = 196575
Q_prod = 196575
qw_prod = -58422.7
qo_prod = -138152

Imb = 1.00091


Cmb = 0.0161955


NewDeltaT = 11

ExecutionTime = 9.03 s  ClockTime = 12 s

Time = 32648

Solving Pressure Equation
DICPCG:  Solving for po, Initial residual = 0.000132523, Final residual = 8.41116e-06, No Iterations 53
Solving Saturation Equation
diagonal:  Solving for sw, Initial residual = 0, Final residual = 0, No Iterations 0
Q_inj = 196575
Q_prod = 196575
qw_prod = -58550.4
qo_prod = -138025

Imb = 1.00093


Cmb = 0.0165422


NewDeltaT = 11

ExecutionTime = 9.22 s  ClockTime = 12 s

Time = 32659

Solving Pressure Equation
DICPCG:  Solving for po, Initial residual = 0.000132389, Final residual = 6.33633e-06, No Iterations 58
Solving Saturation Equation
diagonal:  Solving for sw, Initial residual = 0, Final residual = 0, No Iterations 0
Q_inj = 196575
Q_prod = 196575
qw_prod = -58676.4
qo_prod = -137899

Imb = 1.00091


Cmb = 0.0168889


NewDeltaT = 11

ExecutionTime = 9.49 s  ClockTime = 13 s

Time = 32670

Solving Pressure Equation
DICPCG:  Solving for po, Initial residual = 0.000132247, Final residual = 9.42453e-06, No Iterations 52
Solving Saturation Equation
diagonal:  Solving for sw, Initial residual = 0, Final residual = 0, No Iterations 0
Q_inj = 196575
Q_prod = 196575
qw_prod = -58803.9
qo_prod = -137771

Imb = 1.00093


Cmb = 0.0172358


NewDeltaT = 11

ExecutionTime = 9.75 s  ClockTime = 13 s

Time = 32681

Solving Pressure Equation
DICPCG:  Solving for po, Initial residual = 0.000132516, Final residual = 5.67859e-06, No Iterations 56
Solving Saturation Equation
diagonal:  Solving for sw, Initial residual = 0, Final residual = 0, No Iterations 0
Q_inj = 196575
Q_prod = 196575
qw_prod = -58929.6
qo_prod = -137645

Imb = 1.00091


Cmb = 0.0175827


NewDeltaT = 11

ExecutionTime = 10.1 s  ClockTime = 14 s

Time = 32692

Solving Pressure Equation
DICPCG:  Solving for po, Initial residual = 0.000131718, Final residual = 6.95375e-06, No Iterations 50
Solving Saturation Equation
diagonal:  Solving for sw, Initial residual = 0, Final residual = 0, No Iterations 0
Q_inj = 196575
Q_prod = 196575
qw_prod = -59057
qo_prod = -137518

Imb = 1.00093


Cmb = 0.0179298


NewDeltaT = 11

ExecutionTime = 10.3 s  ClockTime = 14 s

Time = 32703

Solving Pressure Equation
DICPCG:  Solving for po, Initial residual = 0.000131737, Final residual = 8.12537e-06, No Iterations 53
Solving Saturation Equation
diagonal:  Solving for sw, Initial residual = 0, Final residual = 0, No Iterations 0
Q_inj = 196575
Q_prod = 196575
qw_prod = -59182.4
qo_prod = -137393

Imb = 1.00091


Cmb = 0.0182768


NewDeltaT = 11

ExecutionTime = 10.47 s  ClockTime = 14 s

Time = 32714

Solving Pressure Equation
DICPCG:  Solving for po, Initial residual = 0.000131616, Final residual = 7.1772e-06, No Iterations 58
Solving Saturation Equation
diagonal:  Solving for sw, Initial residual = 0, Final residual = 0, No Iterations 0
Q_inj = 196575
Q_prod = 196575
qw_prod = -59309.5
qo_prod = -137265

Imb = 1.00093


Cmb = 0.0186241


NewDeltaT = 11

ExecutionTime = 10.64 s  ClockTime = 15 s

Time = 32725

Solving Pressure Equation
DICPCG:  Solving for po, Initial residual = 0.000131466, Final residual = 8.90669e-06, No Iterations 55
Solving Saturation Equation
diagonal:  Solving for sw, Initial residual = 0, Final residual = 0, No Iterations 0
Q_inj = 196575
Q_prod = 196575
qw_prod = -59434.7
qo_prod = -137140

Imb = 1.00091


Cmb = 0.0189713


NewDeltaT = 11

ExecutionTime = 10.82 s  ClockTime = 15 s

Time = 32736

Solving Pressure Equation
DICPCG:  Solving for po, Initial residual = 0.000131186, Final residual = 7.8443e-06, No Iterations 51
Solving Saturation Equation
diagonal:  Solving for sw, Initial residual = 0, Final residual = 0, No Iterations 0
Q_inj = 196575
Q_prod = 196575
qw_prod = -59561.7
qo_prod = -137013

Imb = 1.00093


Cmb = 0.0193189


NewDeltaT = 11

ExecutionTime = 10.97 s  ClockTime = 15 s

Time = 32747

Solving Pressure Equation
DICPCG:  Solving for po, Initial residual = 0.000131118, Final residual = 8.04097e-06, No Iterations 63
Solving Saturation Equation
diagonal:  Solving for sw, Initial residual = 0, Final residual = 0, No Iterations 0
Q_inj = 196575
Q_prod = 196575
qw_prod = -59686.4
qo_prod = -136889

Imb = 1.00091


Cmb = 0.0196662


NewDeltaT = 11

ExecutionTime = 11.15 s  ClockTime = 15 s

Time = 32758

Solving Pressure Equation
DICPCG:  Solving for po, Initial residual = 0.000131119, Final residual = 9.43369e-06, No Iterations 50
Solving Saturation Equation
diagonal:  Solving for sw, Initial residual = 0, Final residual = 0, No Iterations 0
Q_inj = 196575
Q_prod = 196575
qw_prod = -59813.3
qo_prod = -136762

Imb = 1.00093


Cmb = 0.0200139


NewDeltaT = 11

ExecutionTime = 11.3 s  ClockTime = 15 s

Time = 32769

Solving Pressure Equation
DICPCG:  Solving for po, Initial residual = 0.000131006, Final residual = 9.12349e-06, No Iterations 55
Solving Saturation Equation
diagonal:  Solving for sw, Initial residual = 0, Final residual = 0, No Iterations 0
Q_inj = 196575
Q_prod = 196575
qw_prod = -59937.7
qo_prod = -136637

Imb = 1.00091


Cmb = 0.0203614


NewDeltaT = 11

ExecutionTime = 11.45 s  ClockTime = 16 s

Time = 32780

Solving Pressure Equation
DICPCG:  Solving for po, Initial residual = 0.000130561, Final residual = 8.68249e-06, No Iterations 50
Solving Saturation Equation
diagonal:  Solving for sw, Initial residual = 0, Final residual = 0, No Iterations 0
Q_inj = 196575
Q_prod = 196575
qw_prod = -60064.4
qo_prod = -136511

Imb = 1.00093


Cmb = 0.0207093


NewDeltaT = 11

ExecutionTime = 11.63 s  ClockTime = 16 s

Time = 32791

Solving Pressure Equation
DICPCG:  Solving for po, Initial residual = 0.000130705, Final residual = 8.88712e-06, No Iterations 56
Solving Saturation Equation
diagonal:  Solving for sw, Initial residual = 0, Final residual = 0, No Iterations 0
Q_inj = 196575
Q_prod = 196575
qw_prod = -60188.5
qo_prod = -136387

Imb = 1.00091


Cmb = 0.021057


NewDeltaT = 11

ExecutionTime = 11.8 s  ClockTime = 16 s

Time = 32802

Solving Pressure Equation
DICPCG:  Solving for po, Initial residual = 0.00013044, Final residual = 7.89091e-06, No Iterations 63
Solving Saturation Equation
diagonal:  Solving for sw, Initial residual = 0, Final residual = 0, No Iterations 0
Q_inj = 196575
Q_prod = 196575
qw_prod = -60314.9
qo_prod = -136260

Imb = 1.00093


Cmb = 0.0214051


NewDeltaT = 11

ExecutionTime = 11.96 s  ClockTime = 16 s

Time = 32813

Solving Pressure Equation
DICPCG:  Solving for po, Initial residual = 0.000130508, Final residual = 9.7802e-06, No Iterations 47
Solving Saturation Equation
diagonal:  Solving for sw, Initial residual = 0, Final residual = 0, No Iterations 0
Q_inj = 196575
Q_prod = 196575
qw_prod = -60438.7
qo_prod = -136136

Imb = 1.00091


Cmb = 0.0217529


NewDeltaT = 11

ExecutionTime = 12.12 s  ClockTime = 16 s

Time = 32824

Solving Pressure Equation
DICPCG:  Solving for po, Initial residual = 0.000130472, Final residual = 9.8887e-06, No Iterations 54
Solving Saturation Equation
diagonal:  Solving for sw, Initial residual = 0, Final residual = 0, No Iterations 0
Q_inj = 196575
Q_prod = 196575
qw_prod = -60564.9
qo_prod = -136010

Imb = 1.00093


Cmb = 0.0221013


NewDeltaT = 11

ExecutionTime = 12.34 s  ClockTime = 17 s

Time = 32835

Solving Pressure Equation
DICPCG:  Solving for po, Initial residual = 0.000130311, Final residual = 9.92205e-06, No Iterations 52
Solving Saturation Equation
diagonal:  Solving for sw, Initial residual = 0, Final residual = 0, No Iterations 0
Q_inj = 196575
Q_prod = 196575
qw_prod = -60688.3
qo_prod = -135887

Imb = 1.00091


Cmb = 0.0224492


NewDeltaT = 11

ExecutionTime = 12.58 s  ClockTime = 17 s

Time = 32846

Solving Pressure Equation
DICPCG:  Solving for po, Initial residual = 0.000130359, Final residual = 8.84687e-06, No Iterations 53
Solving Saturation Equation
diagonal:  Solving for sw, Initial residual = 0, Final residual = 0, No Iterations 0
Q_inj = 196575
Q_prod = 196575
qw_prod = -60814.4
qo_prod = -135761

Imb = 1.00093


Cmb = 0.0227978


NewDeltaT = 11

ExecutionTime = 12.83 s  ClockTime = 17 s

Time = 32857

Solving Pressure Equation
DICPCG:  Solving for po, Initial residual = 0.000129687, Final residual = 6.49572e-06, No Iterations 61
Solving Saturation Equation
diagonal:  Solving for sw, Initial residual = 0, Final residual = 0, No Iterations 0
Q_inj = 196575
Q_prod = 196575
qw_prod = -60937.4
qo_prod = -135638

Imb = 1.00091


Cmb = 0.0231459


NewDeltaT = 11

ExecutionTime = 13.11 s  ClockTime = 18 s

Time = 32868

Solving Pressure Equation
DICPCG:  Solving for po, Initial residual = 0.000129777, Final residual = 8.37063e-06, No Iterations 50
Solving Saturation Equation
diagonal:  Solving for sw, Initial residual = 0, Final residual = 0, No Iterations 0
Q_inj = 196575
Q_prod = 196575
qw_prod = -61063.3
qo_prod = -135512

Imb = 1.00093


Cmb = 0.0234946


NewDeltaT = 11

ExecutionTime = 13.28 s  ClockTime = 18 s

Time = 32879

Solving Pressure Equation
DICPCG:  Solving for po, Initial residual = 0.000129545, Final residual = 7.49464e-06, No Iterations 53
Solving Saturation Equation
diagonal:  Solving for sw, Initial residual = 0, Final residual = 0, No Iterations 0
Q_inj = 196575
Q_prod = 196575
qw_prod = -61185.8
qo_prod = -135389

Imb = 1.00091


Cmb = 0.0238429


NewDeltaT = 11

ExecutionTime = 13.45 s  ClockTime = 18 s

Time = 32890

Solving Pressure Equation
DICPCG:  Solving for po, Initial residual = 0.000129412, Final residual = 6.61381e-06, No Iterations 56
Solving Saturation Equation
diagonal:  Solving for sw, Initial residual = 0, Final residual = 0, No Iterations 0
Q_inj = 196575
Q_prod = 196575
qw_prod = -61311.5
qo_prod = -135263

Imb = 1.00093


Cmb = 0.0241918


NewDeltaT = 11

ExecutionTime = 13.63 s  ClockTime = 18 s

Time = 32901

Solving Pressure Equation
DICPCG:  Solving for po, Initial residual = 0.000129105, Final residual = 7.19157e-06, No Iterations 57
Solving Saturation Equation
diagonal:  Solving for sw, Initial residual = 0, Final residual = 0, No Iterations 0
Q_inj = 196575
Q_prod = 196575
qw_prod = -61433.6
qo_prod = -135141

Imb = 1.0009


Cmb = 0.0245402


NewDeltaT = 11

ExecutionTime = 13.79 s  ClockTime = 18 s

Time = 32912

Solving Pressure Equation
DICPCG:  Solving for po, Initial residual = 0.000129283, Final residual = 9.71235e-06, No Iterations 56
Solving Saturation Equation
diagonal:  Solving for sw, Initial residual = 0, Final residual = 0, No Iterations 0
Q_inj = 196575
Q_prod = 196575
qw_prod = -61559.2
qo_prod = -135016

Imb = 1.00093


Cmb = 0.0248894


NewDeltaT = 11

ExecutionTime = 13.95 s  ClockTime = 19 s

Time = 32923

Solving Pressure Equation
DICPCG:  Solving for po, Initial residual = 0.000128881, Final residual = 6.93354e-06, No Iterations 63
Solving Saturation Equation
diagonal:  Solving for sw, Initial residual = 0, Final residual = 0, No Iterations 0
Q_inj = 196575
Q_prod = 196575
qw_prod = -61680.8
qo_prod = -134894

Imb = 1.0009


Cmb = 0.0252379


NewDeltaT = 11

ExecutionTime = 14.12 s  ClockTime = 19 s

Time = 32934

Solving Pressure Equation
DICPCG:  Solving for po, Initial residual = 0.000128803, Final residual = 8.6445e-06, No Iterations 47
Solving Saturation Equation
diagonal:  Solving for sw, Initial residual = 0, Final residual = 0, No Iterations 0
Q_inj = 196575
Q_prod = 196575
qw_prod = -61806.2
qo_prod = -134769

Imb = 1.00093


Cmb = 0.0255873


NewDeltaT = 11

ExecutionTime = 14.26 s  ClockTime = 19 s

Time = 32945

Solving Pressure Equation
DICPCG:  Solving for po, Initial residual = 0.000128829, Final residual = 6.09484e-06, No Iterations 53
Solving Saturation Equation
diagonal:  Solving for sw, Initial residual = 0, Final residual = 0, No Iterations 0
Q_inj = 196575
Q_prod = 196575
qw_prod = -61927.3
qo_prod = -134648

Imb = 1.0009


Cmb = 0.0259359


NewDeltaT = 11

ExecutionTime = 14.4 s  ClockTime = 19 s

Time = 32956

Solving Pressure Equation
DICPCG:  Solving for po, Initial residual = 0.000128389, Final residual = 8.42273e-06, No Iterations 47
Solving Saturation Equation
diagonal:  Solving for sw, Initial residual = 0, Final residual = 0, No Iterations 0
Q_inj = 196575
Q_prod = 196575
qw_prod = -62052.5
qo_prod = -134522

Imb = 1.00093


Cmb = 0.0262855


NewDeltaT = 11

ExecutionTime = 14.56 s  ClockTime = 19 s

Time = 32967

Solving Pressure Equation
DICPCG:  Solving for po, Initial residual = 0.000128561, Final residual = 8.30383e-06, No Iterations 56
Solving Saturation Equation
diagonal:  Solving for sw, Initial residual = 0, Final residual = 0, No Iterations 0
Q_inj = 196575
Q_prod = 196575
qw_prod = -62173.1
qo_prod = -134402

Imb = 1.0009


Cmb = 0.0266342


NewDeltaT = 11

ExecutionTime = 14.71 s  ClockTime = 20 s

Time = 32978

Solving Pressure Equation
DICPCG:  Solving for po, Initial residual = 0.000127974, Final residual = 7.53308e-06, No Iterations 63
Solving Saturation Equation
diagonal:  Solving for sw, Initial residual = 0, Final residual = 0, No Iterations 0
Q_inj = 196575
Q_prod = 196575
qw_prod = -62298.1
qo_prod = -134277

Imb = 1.00093


Cmb = 0.026984


NewDeltaT = 11

ExecutionTime = 14.89 s  ClockTime = 20 s

Time = 32989

Solving Pressure Equation
DICPCG:  Solving for po, Initial residual = 0.00012805, Final residual = 9.40589e-06, No Iterations 47
Solving Saturation Equation
diagonal:  Solving for sw, Initial residual = 0, Final residual = 0, No Iterations 0
Q_inj = 196575
Q_prod = 196575
qw_prod = -62418.2
qo_prod = -134157

Imb = 1.00089


Cmb = 0.0273329


NewDeltaT = 11

ExecutionTime = 15.03 s  ClockTime = 20 s

Time = 33000

Solving Pressure Equation
DICPCG:  Solving for po, Initial residual = 0.000127943, Final residual = 8.80756e-06, No Iterations 53
Solving Saturation Equation
diagonal:  Solving for sw, Initial residual = 0, Final residual = 0, No Iterations 0
Q_inj = 196575
Q_prod = 196575
qw_prod = -62543.1
qo_prod = -134032

Imb = 1.00093


Cmb = 0.0276829


NewDeltaT = 11

ExecutionTime = 15.21 s  ClockTime = 20 s

Time = 33011

Solving Pressure Equation
DICPCG:  Solving for po, Initial residual = 0.000127547, Final residual = 9.78959e-06, No Iterations 52
Solving Saturation Equation
diagonal:  Solving for sw, Initial residual = 0, Final residual = 0, No Iterations 0
Q_inj = 196575
Q_prod = 196575
qw_prod = -62662.5
qo_prod = -133913

Imb = 1.00089


Cmb = 0.0280319


NewDeltaT = 11

ExecutionTime = 15.39 s  ClockTime = 20 s

Time = 33022

Solving Pressure Equation
DICPCG:  Solving for po, Initial residual = 0.000127863, Final residual = 9.37325e-06, No Iterations 53
Solving Saturation Equation
diagonal:  Solving for sw, Initial residual = 0, Final residual = 0, No Iterations 0
Q_inj = 196575
Q_prod = 196575
qw_prod = -62787.3
qo_prod = -133788

Imb = 1.00093


Cmb = 0.0283821


NewDeltaT = 11

ExecutionTime = 15.63 s  ClockTime = 21 s

Time = 33033

Solving Pressure Equation
DICPCG:  Solving for po, Initial residual = 0.000127276, Final residual = 7.81447e-06, No Iterations 58
Solving Saturation Equation
diagonal:  Solving for sw, Initial residual = 0, Final residual = 0, No Iterations 0
Q_inj = 196575
Q_prod = 196575
qw_prod = -62906
qo_prod = -133669

Imb = 1.00089


Cmb = 0.0287311


NewDeltaT = 11

ExecutionTime = 15.91 s  ClockTime = 21 s

Time = 33044

Solving Pressure Equation
DICPCG:  Solving for po, Initial residual = 0.000127143, Final residual = 9.6577e-06, No Iterations 55
Solving Saturation Equation
diagonal:  Solving for sw, Initial residual = 0, Final residual = 0, No Iterations 0
Q_inj = 196575
Q_prod = 196575
qw_prod = -63030.7
qo_prod = -133544

Imb = 1.00093


Cmb = 0.0290816


NewDeltaT = 11

ExecutionTime = 16.2 s  ClockTime = 22 s

Time = 33055

Solving Pressure Equation
DICPCG:  Solving for po, Initial residual = 0.000126825, Final residual = 9.93427e-06, No Iterations 50
Solving Saturation Equation
diagonal:  Solving for sw, Initial residual = 0, Final residual = 0, No Iterations 0
Q_inj = 196575
Q_prod = 196575
qw_prod = -63148.8
qo_prod = -133426

Imb = 1.00088


Cmb = 0.0294307


NewDeltaT = 11

ExecutionTime = 16.38 s  ClockTime = 22 s

Time = 33066

Solving Pressure Equation
DICPCG:  Solving for po, Initial residual = 0.00012708, Final residual = 7.59235e-06, No Iterations 63
Solving Saturation Equation
diagonal:  Solving for sw, Initial residual = 0, Final residual = 0, No Iterations 0
Q_inj = 196575
Q_prod = 196575
qw_prod = -63273.4
qo_prod = -133302

Imb = 1.00093


Cmb = 0.0297814


NewDeltaT = 11

ExecutionTime = 16.58 s  ClockTime = 22 s

Time = 33077

Solving Pressure Equation
DICPCG:  Solving for po, Initial residual = 0.000126665, Final residual = 8.95277e-06, No Iterations 48
Solving Saturation Equation
diagonal:  Solving for sw, Initial residual = 0, Final residual = 0, No Iterations 0
Q_inj = 196575
Q_prod = 196575
qw_prod = -63390.7
qo_prod = -133184

Imb = 1.00088


Cmb = 0.0301306


NewDeltaT = 11

ExecutionTime = 16.74 s  ClockTime = 22 s

Time = 33088

Solving Pressure Equation
DICPCG:  Solving for po, Initial residual = 0.000126346, Final residual = 7.41606e-06, No Iterations 53
Solving Saturation Equation
diagonal:  Solving for sw, Initial residual = 0, Final residual = 0, No Iterations 0
Q_inj = 196575
Q_prod = 196575
qw_prod = -63515.2
qo_prod = -133060

Imb = 1.00094


Cmb = 0.0304815


NewDeltaT = 11

ExecutionTime = 16.9 s  ClockTime = 23 s

Time = 33099

Solving Pressure Equation
DICPCG:  Solving for po, Initial residual = 0.00012617, Final residual = 9.13909e-06, No Iterations 48
Solving Saturation Equation
diagonal:  Solving for sw, Initial residual = 0, Final residual = 0, No Iterations 0
Q_inj = 196575
Q_prod = 196575
qw_prod = -63631.8
qo_prod = -132943

Imb = 1.00088


Cmb = 0.0308307


NewDeltaT = 11

ExecutionTime = 17.06 s  ClockTime = 23 s

Time = 33110

Solving Pressure Equation
DICPCG:  Solving for po, Initial residual = 0.000126204, Final residual = 7.57736e-06, No Iterations 56
Solving Saturation Equation
diagonal:  Solving for sw, Initial residual = 0, Final residual = 0, No Iterations 0
Q_inj = 196575
Q_prod = 196575
qw_prod = -63756.3
qo_prod = -132819

Imb = 1.00094


Cmb = 0.0311819


NewDeltaT = 11

ExecutionTime = 17.23 s  ClockTime = 23 s

Time = 33121

Solving Pressure Equation
DICPCG:  Solving for po, Initial residual = 0.000125815, Final residual = 7.24766e-06, No Iterations 63
Solving Saturation Equation
diagonal:  Solving for sw, Initial residual = 0, Final residual = 0, No Iterations 0
Q_inj = 196575
Q_prod = 196575
qw_prod = -63872
qo_prod = -132703

Imb = 1.00087


Cmb = 0.0315311


NewDeltaT = 11

ExecutionTime = 17.39 s  ClockTime = 23 s

Time = 33132

Solving Pressure Equation
DICPCG:  Solving for po, Initial residual = 0.000125827, Final residual = 9.12336e-06, No Iterations 47
Solving Saturation Equation
diagonal:  Solving for sw, Initial residual = 0, Final residual = 0, No Iterations 0
Q_inj = 196575
Q_prod = 196575
qw_prod = -63996.5
qo_prod = -132578

Imb = 1.00094


Cmb = 0.0318826


NewDeltaT = 11

ExecutionTime = 17.54 s  ClockTime = 23 s

Time = 33143

Solving Pressure Equation
DICPCG:  Solving for po, Initial residual = 0.00012574, Final residual = 9.4146e-06, No Iterations 53
Solving Saturation Equation
diagonal:  Solving for sw, Initial residual = 0, Final residual = 0, No Iterations 0
Q_inj = 196575
Q_prod = 196575
qw_prod = -64111.3
qo_prod = -132464

Imb = 1.00087


Cmb = 0.0322318


NewDeltaT = 11

ExecutionTime = 17.72 s  ClockTime = 24 s

Time = 33154

Solving Pressure Equation
DICPCG:  Solving for po, Initial residual = 0.00012541, Final residual = 9.55314e-06, No Iterations 51
Solving Saturation Equation
diagonal:  Solving for sw, Initial residual = 0, Final residual = 0, No Iterations 0
Q_inj = 196575
Q_prod = 196575
qw_prod = -64235.9
qo_prod = -132339

Imb = 1.00094


Cmb = 0.0325835


NewDeltaT = 11

ExecutionTime = 17.86 s  ClockTime = 24 s

Time = 33165

Solving Pressure Equation
DICPCG:  Solving for po, Initial residual = 0.000125346, Final residual = 7.37714e-06, No Iterations 53
Solving Saturation Equation
diagonal:  Solving for sw, Initial residual = 0, Final residual = 0, No Iterations 0
Q_inj = 196575
Q_prod = 196575
qw_prod = -64349.7
qo_prod = -132225

Imb = 1.00086


Cmb = 0.0329327


NewDeltaT = 11

ExecutionTime = 18.05 s  ClockTime = 24 s

Time = 33176

Solving Pressure Equation
DICPCG:  Solving for po, Initial residual = 0.000124963, Final residual = 8.65169e-06, No Iterations 60
Solving Saturation Equation
diagonal:  Solving for sw, Initial residual = 0, Final residual = 0, No Iterations 0
Q_inj = 196575
Q_prod = 196575
qw_prod = -64474.3
qo_prod = -132101

Imb = 1.00094


Cmb = 0.0332847


NewDeltaT = 11

ExecutionTime = 18.24 s  ClockTime = 24 s

Time = 33187

Solving Pressure Equation
DICPCG:  Solving for po, Initial residual = 0.000124665, Final residual = 5.26355e-06, No Iterations 56
Solving Saturation Equation
diagonal:  Solving for sw, Initial residual = 0, Final residual = 0, No Iterations 0
Q_inj = 196575
Q_prod = 196575
qw_prod = -64587.1
qo_prod = -131988

Imb = 1.00085


Cmb = 0.0336339


NewDeltaT = 11

ExecutionTime = 18.5 s  ClockTime = 25 s

Time = 33198

Solving Pressure Equation
DICPCG:  Solving for po, Initial residual = 0.000124488, Final residual = 9.97011e-06, No Iterations 47
Solving Saturation Equation
diagonal:  Solving for sw, Initial residual = 0, Final residual = 0, No Iterations 0
Q_inj = 196575
Q_prod = 196575
qw_prod = -64711.9
qo_prod = -131863

Imb = 1.00095


Cmb = 0.0339862


NewDeltaT = 11

ExecutionTime = 18.94 s  ClockTime = 25 s

Time = 33209

Solving Pressure Equation
DICPCG:  Solving for po, Initial residual = 0.000124649, Final residual = 8.39576e-06, No Iterations 57
Solving Saturation Equation
diagonal:  Solving for sw, Initial residual = 0, Final residual = 0, No Iterations 0
Q_inj = 196575
Q_prod = 196575
qw_prod = -64823.6
qo_prod = -131751

Imb = 1.00085


Cmb = 0.0343353


NewDeltaT = 11

ExecutionTime = 19.23 s  ClockTime = 26 s

Time = 33220

Solving Pressure Equation
DICPCG:  Solving for po, Initial residual = 0.000124514, Final residual = 8.16985e-06, No Iterations 56
Solving Saturation Equation
diagonal:  Solving for sw, Initial residual = 0, Final residual = 0, No Iterations 0
Q_inj = 196575
Q_prod = 196575
qw_prod = -64948.6
qo_prod = -131626

Imb = 1.00095


Cmb = 0.0346879


NewDeltaT = 11

ExecutionTime = 19.51 s  ClockTime = 26 s

Time = 33231

Solving Pressure Equation
DICPCG:  Solving for po, Initial residual = 0.00012424, Final residual = 7.8106e-06, No Iterations 61
Solving Saturation Equation
diagonal:  Solving for sw, Initial residual = 0, Final residual = 0, No Iterations 0
Q_inj = 196575
Q_prod = 196575
qw_prod = -65059
qo_prod = -131516

Imb = 1.00084


Cmb = 0.0350369


NewDeltaT = 11

ExecutionTime = 19.81 s  ClockTime = 26 s

Time = 33242

Solving Pressure Equation
DICPCG:  Solving for po, Initial residual = 0.000123901, Final residual = 8.61593e-06, No Iterations 52
Solving Saturation Equation
diagonal:  Solving for sw, Initial residual = 0, Final residual = 0, No Iterations 0
Q_inj = 196575
Q_prod = 196575
qw_prod = -65184.3
qo_prod = -131391

Imb = 1.00095


Cmb = 0.0353899


NewDeltaT = 11

ExecutionTime = 20 s  ClockTime = 27 s

Time = 33253

Solving Pressure Equation
DICPCG:  Solving for po, Initial residual = 0.000123834, Final residual = 7.01758e-06, No Iterations 53
Solving Saturation Equation
diagonal:  Solving for sw, Initial residual = 0, Final residual = 0, No Iterations 0
Q_inj = 196575
Q_prod = 196575
qw_prod = -65293.4
qo_prod = -131282

Imb = 1.00083


Cmb = 0.0357387


NewDeltaT = 11

ExecutionTime = 20.17 s  ClockTime = 27 s

Time = 33264

Solving Pressure Equation
DICPCG:  Solving for po, Initial residual = 0.00012346, Final residual = 8.59932e-06, No Iterations 53
Solving Saturation Equation
diagonal:  Solving for sw, Initial residual = 0, Final residual = 0, No Iterations 0
Q_inj = 196575
Q_prod = 196575
qw_prod = -65419.1
qo_prod = -131156

Imb = 1.00096


Cmb = 0.0360921


NewDeltaT = 11

ExecutionTime = 20.32 s  ClockTime = 27 s

Time = 33275

Solving Pressure Equation
DICPCG:  Solving for po, Initial residual = 0.00012329, Final residual = 6.84861e-06, No Iterations 58
Solving Saturation Equation
diagonal:  Solving for sw, Initial residual = 0, Final residual = 0, No Iterations 0
Q_inj = 196575
Q_prod = 196575
qw_prod = -65526.7
qo_prod = -131048

Imb = 1.00082


Cmb = 0.0364406


NewDeltaT = 11

ExecutionTime = 20.49 s  ClockTime = 27 s

Time = 33286

Solving Pressure Equation
DICPCG:  Solving for po, Initial residual = 0.000123184, Final residual = 8.86828e-06, No Iterations 55
Solving Saturation Equation
diagonal:  Solving for sw, Initial residual = 0, Final residual = 0, No Iterations 0
Q_inj = 196575
Q_prod = 196575
qw_prod = -65653
qo_prod = -130922

Imb = 1.00096


Cmb = 0.0367945


NewDeltaT = 11

ExecutionTime = 20.67 s  ClockTime = 27 s

Time = 33297

Solving Pressure Equation
DICPCG:  Solving for po, Initial residual = 0.000122572, Final residual = 9.94917e-06, No Iterations 50
Solving Saturation Equation
diagonal:  Solving for sw, Initial residual = 0, Final residual = 0, No Iterations 0
Q_inj = 196575
Q_prod = 196575
qw_prod = -65759
qo_prod = -130816

Imb = 1.00081


Cmb = 0.0371428


NewDeltaT = 11

ExecutionTime = 20.82 s  ClockTime = 28 s

Time = 33308

Solving Pressure Equation
DICPCG:  Solving for po, Initial residual = 0.000122981, Final residual = 7.65049e-06, No Iterations 58
Solving Saturation Equation
diagonal:  Solving for sw, Initial residual = 0, Final residual = 0, No Iterations 0
Q_inj = 196575
Q_prod = 196575
qw_prod = -65885.9
qo_prod = -130689

Imb = 1.00097


Cmb = 0.0374972


NewDeltaT = 11

ExecutionTime = 20.97 s  ClockTime = 28 s

Time = 33319

Solving Pressure Equation
DICPCG:  Solving for po, Initial residual = 0.000122417, Final residual = 6.49951e-06, No Iterations 53
Solving Saturation Equation
diagonal:  Solving for sw, Initial residual = 0, Final residual = 0, No Iterations 0
Q_inj = 196575
Q_prod = 196575
qw_prod = -65990.2
qo_prod = -130585

Imb = 1.0008


Cmb = 0.0378451


NewDeltaT = 11

ExecutionTime = 21.14 s  ClockTime = 28 s

Time = 33330

Solving Pressure Equation
DICPCG:  Solving for po, Initial residual = 0.000122428, Final residual = 9.35218e-06, No Iterations 50
Solving Saturation Equation
diagonal:  Solving for sw, Initial residual = 0, Final residual = 0, No Iterations 0
Q_inj = 196575
Q_prod = 196575
qw_prod = -66117.9
qo_prod = -130457

Imb = 1.00098


Cmb = 0.0382


NewDeltaT = 11

ExecutionTime = 21.29 s  ClockTime = 28 s

Time = 33341

Solving Pressure Equation
DICPCG:  Solving for po, Initial residual = 0.00012232, Final residual = 7.14045e-06, No Iterations 63
Solving Saturation Equation
diagonal:  Solving for sw, Initial residual = 0, Final residual = 0, No Iterations 0
Q_inj = 196575
Q_prod = 196575
qw_prod = -66220.2
qo_prod = -130355

Imb = 1.00078


Cmb = 0.0385476


NewDeltaT = 11

ExecutionTime = 21.55 s  ClockTime = 29 s

Time = 33352

Solving Pressure Equation
DICPCG:  Solving for po, Initial residual = 0.000121908, Final residual = 8.83905e-06, No Iterations 47
Solving Saturation Equation
diagonal:  Solving for sw, Initial residual = 0, Final residual = 0, No Iterations 0
Q_inj = 196575
Q_prod = 196575
qw_prod = -66348.9
qo_prod = -130226

Imb = 1.00099


Cmb = 0.0389031


NewDeltaT = 11

ExecutionTime = 21.74 s  ClockTime = 29 s

Time = 33363

Solving Pressure Equation
DICPCG:  Solving for po, Initial residual = 0.000121832, Final residual = 9.77289e-06, No Iterations 53
Solving Saturation Equation
diagonal:  Solving for sw, Initial residual = 0, Final residual = 0, No Iterations 0
Q_inj = 196575
Q_prod = 196575
qw_prod = -66449.1
qo_prod = -130126

Imb = 1.00077


Cmb = 0.0392502


NewDeltaT = 11

ExecutionTime = 21.97 s  ClockTime = 29 s

Time = 33374

Solving Pressure Equation
DICPCG:  Solving for po, Initial residual = 0.000121658, Final residual = 8.89931e-06, No Iterations 51
Solving Saturation Equation
diagonal:  Solving for sw, Initial residual = 0, Final residual = 0, No Iterations 0
Q_inj = 196575
Q_prod = 196575
qw_prod = -66578.9
qo_prod = -129996

Imb = 1.001


Cmb = 0.0396063


NewDeltaT = 11

ExecutionTime = 22.23 s  ClockTime = 29 s

Time = 33385

Solving Pressure Equation
DICPCG:  Solving for po, Initial residual = 0.000121344, Final residual = 6.63671e-06, No Iterations 53
Solving Saturation Equation
diagonal:  Solving for sw, Initial residual = 0, Final residual = 0, No Iterations 0
Q_inj = 196575
Q_prod = 196575
qw_prod = -66676.7
qo_prod = -129898

Imb = 1.00075


Cmb = 0.0399528


NewDeltaT = 11

ExecutionTime = 22.49 s  ClockTime = 30 s

Time = 33396

Solving Pressure Equation
DICPCG:  Solving for po, Initial residual = 0.000120995, Final residual = 9.40465e-06, No Iterations 57
Solving Saturation Equation
diagonal:  Solving for sw, Initial residual = 0, Final residual = 0, No Iterations 0
Q_inj = 196575
Q_prod = 196575
qw_prod = -66807.9
qo_prod = -129767

Imb = 1.00101


Cmb = 0.0403098


NewDeltaT = 11

ExecutionTime = 22.71 s  ClockTime = 30 s

Time = 33407

Solving Pressure Equation
DICPCG:  Solving for po, Initial residual = 0.000120995, Final residual = 8.21025e-06, No Iterations 53
Solving Saturation Equation
diagonal:  Solving for sw, Initial residual = 0, Final residual = 0, No Iterations 0
Q_inj = 196575
Q_prod = 196575
qw_prod = -66903.2
qo_prod = -129672

Imb = 1.00073


Cmb = 0.0406556


NewDeltaT = 11

ExecutionTime = 22.91 s  ClockTime = 30 s

Time = 33418

Solving Pressure Equation
DICPCG:  Solving for po, Initial residual = 0.000120873, Final residual = 9.04011e-06, No Iterations 50
Solving Saturation Equation
diagonal:  Solving for sw, Initial residual = 0, Final residual = 0, No Iterations 0
Q_inj = 196575
Q_prod = 196575
qw_prod = -67036
qo_prod = -129539

Imb = 1.00103


Cmb = 0.0410134


NewDeltaT = 11

ExecutionTime = 23.11 s  ClockTime = 31 s

Time = 33429

Solving Pressure Equation
DICPCG:  Solving for po, Initial residual = 0.000120666, Final residual = 7.15457e-06, No Iterations 63
Solving Saturation Equation
diagonal:  Solving for sw, Initial residual = 0, Final residual = 0, No Iterations 0
Q_inj = 196575
Q_prod = 196575
qw_prod = -67128.4
qo_prod = -129447

Imb = 1.00071


Cmb = 0.0413585


NewDeltaT = 11

ExecutionTime = 23.29 s  ClockTime = 31 s

Time = 33440

Solving Pressure Equation
DICPCG:  Solving for po, Initial residual = 0.000120279, Final residual = 8.0225e-06, No Iterations 47
Solving Saturation Equation
diagonal:  Solving for sw, Initial residual = 0, Final residual = 0, No Iterations 0
Q_inj = 196575
Q_prod = 196575
qw_prod = -67263.1
qo_prod = -129312

Imb = 1.00104


Cmb = 0.0417172


NewDeltaT = 11

ExecutionTime = 23.44 s  ClockTime = 31 s

Time = 33451

Solving Pressure Equation
DICPCG:  Solving for po, Initial residual = 0.000120199, Final residual = 7.69171e-06, No Iterations 53
Solving Saturation Equation
diagonal:  Solving for sw, Initial residual = 0, Final residual = 0, No Iterations 0
Q_inj = 196575
Q_prod = 196575
qw_prod = -67352.3
qo_prod = -129223

Imb = 1.00069


Cmb = 0.0420614


NewDeltaT = 11

ExecutionTime = 23.61 s  ClockTime = 31 s

Time = 33462

Solving Pressure Equation
DICPCG:  Solving for po, Initial residual = 0.000119932, Final residual = 8.67144e-06, No Iterations 53
Solving Saturation Equation
diagonal:  Solving for sw, Initial residual = 0, Final residual = 0, No Iterations 0
Q_inj = 196575
Q_prod = 196575
qw_prod = -67489.3
qo_prod = -129086

Imb = 1.00106


Cmb = 0.0424212


NewDeltaT = 11

ExecutionTime = 23.77 s  ClockTime = 31 s

Time = 33473

Solving Pressure Equation
DICPCG:  Solving for po, Initial residual = 0.000119693, Final residual = 7.1914e-06, No Iterations 56
Solving Saturation Equation
diagonal:  Solving for sw, Initial residual = 0, Final residual = 0, No Iterations 0
Q_inj = 196575
Q_prod = 196575
qw_prod = -67574.9
qo_prod = -129000

Imb = 1.00066


Cmb = 0.0427643


NewDeltaT = 11

ExecutionTime = 23.93 s  ClockTime = 32 s

Time = 33484

Solving Pressure Equation
DICPCG:  Solving for po, Initial residual = 0.000119573, Final residual = 8.36293e-06, No Iterations 57
Solving Saturation Equation
diagonal:  Solving for sw, Initial residual = 0, Final residual = 0, No Iterations 0
Q_inj = 196575
Q_prod = 196575
qw_prod = -67714.6
qo_prod = -128860

Imb = 1.00108


Cmb = 0.0431255


NewDeltaT = 11

ExecutionTime = 24.08 s  ClockTime = 32 s

Time = 33495

Solving Pressure Equation
DICPCG:  Solving for po, Initial residual = 0.000119303, Final residual = 6.4129e-06, No Iterations 63
Solving Saturation Equation
diagonal:  Solving for sw, Initial residual = 0, Final residual = 0, No Iterations 0
Q_inj = 196575
Q_prod = 196575
qw_prod = -67796.1
qo_prod = -128779

Imb = 1.00063


Cmb = 0.0434672


NewDeltaT = 11

ExecutionTime = 24.25 s  ClockTime = 32 s

Time = 33506

Solving Pressure Equation
DICPCG:  Solving for po, Initial residual = 0.000119084, Final residual = 9.89297e-06, No Iterations 47
Solving Saturation Equation
diagonal:  Solving for sw, Initial residual = 0, Final residual = 0, No Iterations 0
Q_inj = 196575
Q_prod = 196575
qw_prod = -67939
qo_prod = -128636

Imb = 1.00111


Cmb = 0.0438298


NewDeltaT = 11

ExecutionTime = 24.42 s  ClockTime = 32 s

Time = 33517

Solving Pressure Equation
DICPCG:  Solving for po, Initial residual = 0.000119087, Final residual = 9.57341e-06, No Iterations 51
Solving Saturation Equation
diagonal:  Solving for sw, Initial residual = 0, Final residual = 0, No Iterations 0
Q_inj = 196575
Q_prod = 196575
qw_prod = -68016
qo_prod = -128559

Imb = 1.0006


Cmb = 0.0441701


NewDeltaT = 11

ExecutionTime = 24.63 s  ClockTime = 32 s

Time = 33528

Solving Pressure Equation
DICPCG:  Solving for po, Initial residual = 0.000118878, Final residual = 6.72332e-06, No Iterations 53
Solving Saturation Equation
diagonal:  Solving for sw, Initial residual = 0, Final residual = 0, No Iterations 0
Q_inj = 196575
Q_prod = 196575
qw_prod = -68162.5
qo_prod = -128413

Imb = 1.00114


Cmb = 0.0445344


NewDeltaT = 11

ExecutionTime = 24.97 s  ClockTime = 33 s

Time = 33539

Solving Pressure Equation
DICPCG:  Solving for po, Initial residual = 0.000118428, Final residual = 9.4234e-06, No Iterations 48
Solving Saturation Equation
diagonal:  Solving for sw, Initial residual = 0, Final residual = 0, No Iterations 0
Q_inj = 196575
Q_prod = 196575
qw_prod = -68234.4
qo_prod = -128341

Imb = 1.00056


Cmb = 0.0448729


NewDeltaT = 11

ExecutionTime = 25.31 s  ClockTime = 33 s

Time = 33550

Solving Pressure Equation
DICPCG:  Solving for po, Initial residual = 0.000118435, Final residual = 6.72373e-06, No Iterations 63
Solving Saturation Equation
diagonal:  Solving for sw, Initial residual = 0, Final residual = 0, No Iterations 0
Q_inj = 196575
Q_prod = 196575
qw_prod = -68385.1
qo_prod = -128190

Imb = 1.00118


Cmb = 0.0452392


NewDeltaT = 11

ExecutionTime = 25.58 s  ClockTime = 34 s

Time = 33561

Solving Pressure Equation
DICPCG:  Solving for po, Initial residual = 0.000118052, Final residual = 8.11406e-06, No Iterations 47
Solving Saturation Equation
diagonal:  Solving for sw, Initial residual = 0, Final residual = 0, No Iterations 0
Q_inj = 196575
Q_prod = 196575
qw_prod = -68451.3
qo_prod = -128124

Imb = 1.00052


Cmb = 0.0455757


NewDeltaT = 11

ExecutionTime = 25.78 s  ClockTime = 34 s

Time = 33572

Solving Pressure Equation
DICPCG:  Solving for po, Initial residual = 0.000118051, Final residual = 9.05431e-06, No Iterations 54
Solving Saturation Equation
diagonal:  Solving for sw, Initial residual = 0, Final residual = 0, No Iterations 0
Q_inj = 196575
Q_prod = 196575
qw_prod = -68606.9
qo_prod = -127968

Imb = 1.00122


Cmb = 0.0459442


NewDeltaT = 11

ExecutionTime = 25.98 s  ClockTime = 34 s

Time = 33583

Solving Pressure Equation
DICPCG:  Solving for po, Initial residual = 0.000117804, Final residual = 9.66223e-06, No Iterations 52
Solving Saturation Equation
diagonal:  Solving for sw, Initial residual = 0, Final residual = 0, No Iterations 0
Q_inj = 196575
Q_prod = 196575
qw_prod = -68666.6
qo_prod = -127908

Imb = 1.00047


Cmb = 0.0462783


NewDeltaT = 11

ExecutionTime = 26.15 s  ClockTime = 35 s

Time = 33594

Solving Pressure Equation
DICPCG:  Solving for po, Initial residual = 0.000117651, Final residual = 8.87688e-06, No Iterations 53
Solving Saturation Equation
diagonal:  Solving for sw, Initial residual = 0, Final residual = 0, No Iterations 0
Q_inj = 196575
Q_prod = 196575
qw_prod = -68828.1
qo_prod = -127747

Imb = 1.00126


Cmb = 0.0466494


NewDeltaT = 11

ExecutionTime = 26.32 s  ClockTime = 35 s

Time = 33605

Solving Pressure Equation
DICPCG:  Solving for po, Initial residual = 0.000117385, Final residual = 8.25204e-06, No Iterations 57
Solving Saturation Equation
diagonal:  Solving for sw, Initial residual = 0, Final residual = 0, No Iterations 0
Q_inj = 196575
Q_prod = 196575
qw_prod = -68880.4
qo_prod = -127695

Imb = 1.00041


Cmb = 0.0469808


NewDeltaT = 11

ExecutionTime = 26.47 s  ClockTime = 35 s

Time = 33616

Solving Pressure Equation
DICPCG:  Solving for po, Initial residual = 0.000117165, Final residual = 9.99125e-06, No Iterations 56
Solving Saturation Equation
diagonal:  Solving for sw, Initial residual = 0, Final residual = 0, No Iterations 0
Q_inj = 196575
Q_prod = 196575
qw_prod = -69048.5
qo_prod = -127527

Imb = 1.00132


Cmb = 0.047355


NewDeltaT = 11

ExecutionTime = 26.68 s  ClockTime = 35 s

Time = 33627

Solving Pressure Equation
DICPCG:  Solving for po, Initial residual = 0.000117135, Final residual = 9.87746e-06, No Iterations 61
Solving Saturation Equation
diagonal:  Solving for sw, Initial residual = 0, Final residual = 0, No Iterations 0
Q_inj = 196575
Q_prod = 196575
qw_prod = -69092.4
qo_prod = -127483

Imb = 1.00034


Cmb = 0.047683


NewDeltaT = 11

ExecutionTime = 26.86 s  ClockTime = 35 s

Time = 33638

Solving Pressure Equation
DICPCG:  Solving for po, Initial residual = 0.000117238, Final residual = 9.19958e-06, No Iterations 50
Solving Saturation Equation
diagonal:  Solving for sw, Initial residual = 0, Final residual = 0, No Iterations 0
Q_inj = 196575
Q_prod = 196575
qw_prod = -69268.3
qo_prod = -127307

Imb = 1.00138


Cmb = 0.0480607


NewDeltaT = 11

ExecutionTime = 27.08 s  ClockTime = 36 s

Time = 33649

Solving Pressure Equation
DICPCG:  Solving for po, Initial residual = 0.000116742, Final residual = 9.5477e-06, No Iterations 54
Solving Saturation Equation
diagonal:  Solving for sw, Initial residual = 0, Final residual = 0, No Iterations 0
Q_inj = 196575
Q_prod = 196575
qw_prod = -69302.7
qo_prod = -127272

Imb = 1.00027


Cmb = 0.048385


NewDeltaT = 11

ExecutionTime = 27.27 s  ClockTime = 36 s

Time = 33660

Solving Pressure Equation
DICPCG:  Solving for po, Initial residual = 0.000116557, Final residual = 9.53374e-06, No Iterations 50
Solving Saturation Equation
diagonal:  Solving for sw, Initial residual = 0, Final residual = 0, No Iterations 0
Q_inj = 196575
Q_prod = 196575
qw_prod = -69487.5
qo_prod = -127087

Imb = 1.00145


Cmb = 0.0487668


NewDeltaT = 11

ExecutionTime = 27.47 s  ClockTime = 36 s

Time = 33671

Solving Pressure Equation
DICPCG:  Solving for po, Initial residual = 0.000116406, Final residual = 6.62716e-06, No Iterations 63
Solving Saturation Equation
diagonal:  Solving for sw, Initial residual = 0, Final residual = 0, No Iterations 0
Q_inj = 196575
Q_prod = 196575
qw_prod = -69511.1
qo_prod = -127064

Imb = 1.00019


Cmb = 0.0490867


NewDeltaT = 11

ExecutionTime = 27.68 s  ClockTime = 36 s

Time = 33682

Solving Pressure Equation
DICPCG:  Solving for po, Initial residual = 0.000115855, Final residual = 7.71171e-06, No Iterations 47
Solving Saturation Equation
diagonal:  Solving for sw, Initial residual = 0, Final residual = 0, No Iterations 0
Q_inj = 196575
Q_prod = 196575
qw_prod = -69706.3
qo_prod = -126869

Imb = 1.00154


Cmb = 0.0494732


NewDeltaT = 11

ExecutionTime = 27.99 s  ClockTime = 37 s

Time = 33693

Solving Pressure Equation
DICPCG:  Solving for po, Initial residual = 0.000115863, Final residual = 8.57844e-06, No Iterations 53
Solving Saturation Equation
diagonal:  Solving for sw, Initial residual = 0, Final residual = 0, No Iterations 0
Q_inj = 196575
Q_prod = 196575
qw_prod = -69717.6
qo_prod = -126857

Imb = 1.00009


Cmb = 0.049788


NewDeltaT = 11

ExecutionTime = 28.27 s  ClockTime = 37 s

Time = 33704

Solving Pressure Equation
DICPCG:  Solving for po, Initial residual = 0.000115702, Final residual = 8.9955e-06, No Iterations 54
Solving Saturation Equation
diagonal:  Solving for sw, Initial residual = 0, Final residual = 0, No Iterations 0
Q_inj = 196575
Q_prod = 196575
qw_prod = -69924.7
qo_prod = -126650

Imb = 1.00164


Cmb = 0.05018


NewDeltaT = 11

ExecutionTime = 28.53 s  ClockTime = 38 s

Time = 33715

Solving Pressure Equation
DICPCG:  Solving for po, Initial residual = 0.000115448, Final residual = 9.67029e-06, No Iterations 52
Solving Saturation Equation
diagonal:  Solving for sw, Initial residual = 0, Final residual = 0, No Iterations 0
Q_inj = 196575
Q_prod = 196575
qw_prod = -69922.1
qo_prod = -126653

Imb = 0.999979


Cmb = 0.0504889


NewDeltaT = 11

ExecutionTime = 28.7 s  ClockTime = 38 s

Time = 33726

Solving Pressure Equation
DICPCG:  Solving for po, Initial residual = 0.000115231, Final residual = 8.64715e-06, No Iterations 56
Solving Saturation Equation
diagonal:  Solving for sw, Initial residual = 0, Final residual = 0, No Iterations 0
Q_inj = 196575
Q_prod = 196575
qw_prod = -70143
qo_prod = -126432

Imb = 1.00175


Cmb = 0.0508873


NewDeltaT = 11

ExecutionTime = 28.88 s  ClockTime = 38 s

Time = 33737

Solving Pressure Equation
DICPCG:  Solving for po, Initial residual = 0.000114978, Final residual = 6.26659e-06, No Iterations 63
Solving Saturation Equation
diagonal:  Solving for sw, Initial residual = 0, Final residual = 0, No Iterations 0
Q_inj = 196575
Q_prod = 196575
qw_prod = -70124.2
qo_prod = -126451

Imb = 0.999852


Cmb = 0.0511892


NewDeltaT = 11

ExecutionTime = 29.09 s  ClockTime = 38 s

Time = 33748

Solving Pressure Equation
DICPCG:  Solving for po, Initial residual = 0.000114665, Final residual = 7.82086e-06, No Iterations 47
Solving Saturation Equation
diagonal:  Solving for sw, Initial residual = 0, Final residual = 0, No Iterations 0
Q_inj = 196575
Q_prod = 196575
qw_prod = -70361.1
qo_prod = -126214

Imb = 1.00188


Cmb = 0.0515951


NewDeltaT = 11

ExecutionTime = 29.23 s  ClockTime = 39 s

Time = 33759

Solving Pressure Equation
DICPCG:  Solving for po, Initial residual = 0.000114633, Final residual = 9.8336e-06, No Iterations 52
Solving Saturation Equation
diagonal:  Solving for sw, Initial residual = 0, Final residual = 0, No Iterations 0
Q_inj = 196575
Q_prod = 196575
qw_prod = -70324.1
qo_prod = -126251

Imb = 0.999707


Cmb = 0.0518889


NewDeltaT = 11

ExecutionTime = 29.39 s  ClockTime = 39 s

Time = 33770

Solving Pressure Equation
DICPCG:  Solving for po, Initial residual = 0.000114498, Final residual = 9.65391e-06, No Iterations 54
Solving Saturation Equation
diagonal:  Solving for sw, Initial residual = 0, Final residual = 0, No Iterations 0
Q_inj = 196575
Q_prod = 196575
qw_prod = -70579.4
qo_prod = -125996

Imb = 1.00203


Cmb = 0.0523035


NewDeltaT = 11

ExecutionTime = 29.63 s  ClockTime = 39 s

Time = 33781

Solving Pressure Equation
DICPCG:  Solving for po, Initial residual = 0.000114236, Final residual = 9.42257e-06, No Iterations 51
Solving Saturation Equation
diagonal:  Solving for sw, Initial residual = 0, Final residual = 0, No Iterations 0
Q_inj = 196575
Q_prod = 196575
qw_prod = -70521.4
qo_prod = -126054

Imb = 0.99954


Cmb = 0.0525879


NewDeltaT = 11

ExecutionTime = 29.78 s  ClockTime = 39 s

Time = 33792

Solving Pressure Equation
DICPCG:  Solving for po, Initial residual = 0.000113882, Final residual = 5.94929e-06, No Iterations 63
Solving Saturation Equation
diagonal:  Solving for sw, Initial residual = 0, Final residual = 0, No Iterations 0
Q_inj = 196575
Q_prod = 196575
qw_prod = -70797.9
qo_prod = -125777

Imb = 1.0022


Cmb = 0.0530126


NewDeltaT = 11

ExecutionTime = 30.07 s  ClockTime = 40 s

Time = 33803

Solving Pressure Equation
DICPCG:  Solving for po, Initial residual = 0.000113685, Final residual = 9.21985e-06, No Iterations 47
Solving Saturation Equation
diagonal:  Solving for sw, Initial residual = 0, Final residual = 0, No Iterations 0
Q_inj = 196575
Q_prod = 196575
qw_prod = -70716
qo_prod = -125859

Imb = 0.999349


Cmb = 0.053286


NewDeltaT = 11

ExecutionTime = 30.28 s  ClockTime = 40 s

Time = 33814

Solving Pressure Equation
DICPCG:  Solving for po, Initial residual = 0.000113583, Final residual = 9.75629e-06, No Iterations 54
Solving Saturation Equation
diagonal:  Solving for sw, Initial residual = 0, Final residual = 0, No Iterations 0
Q_inj = 196575
Q_prod = 196575
qw_prod = -71017
qo_prod = -125558

Imb = 1.0024


Cmb = 0.0537225


NewDeltaT = 11

ExecutionTime = 30.47 s  ClockTime = 40 s

Time = 33825

Solving Pressure Equation
DICPCG:  Solving for po, Initial residual = 0.000113446, Final residual = 9.01299e-06, No Iterations 52
Solving Saturation Equation
diagonal:  Solving for sw, Initial residual = 0, Final residual = 0, No Iterations 0
Q_inj = 196575
Q_prod = 196575
qw_prod = -70907.5
qo_prod = -125667

Imb = 0.999129


Cmb = 0.0539832


NewDeltaT = 11

ExecutionTime = 30.68 s  ClockTime = 40 s

Time = 33836

Solving Pressure Equation
DICPCG:  Solving for po, Initial residual = 0.000113219, Final residual = 8.05006e-06, No Iterations 47
Solving Saturation Equation
diagonal:  Solving for sw, Initial residual = 0, Final residual = 0, No Iterations 0
Q_inj = 196575
Q_prod = 196575
qw_prod = -71236.9
qo_prod = -125338

Imb = 1.00263


Cmb = 0.0544334


NewDeltaT = 11

ExecutionTime = 30.88 s  ClockTime = 41 s

Time = 33847

Solving Pressure Equation
DICPCG:  Solving for po, Initial residual = 0.000112982, Final residual = 6.07734e-06, No Iterations 63
Solving Saturation Equation
diagonal:  Solving for sw, Initial residual = 0, Final residual = 0, No Iterations 0
Q_inj = 196575
Q_prod = 196575
qw_prod = -71095.8
qo_prod = -125479

Imb = 0.998876


Cmb = 0.0546791


NewDeltaT = 11

ExecutionTime = 31.29 s  ClockTime = 41 s

Time = 33858

Solving Pressure Equation
DICPCG:  Solving for po, Initial residual = 0.000112667, Final residual = 7.29399e-06, No Iterations 47
Solving Saturation Equation
diagonal:  Solving for sw, Initial residual = 0, Final residual = 0, No Iterations 0
Q_inj = 196575
Q_prod = 196575
qw_prod = -71457.8
qo_prod = -125117

Imb = 1.00289


Cmb = 0.0551453


NewDeltaT = 11

ExecutionTime = 31.5 s  ClockTime = 42 s

Time = 33869

Solving Pressure Equation
DICPCG:  Solving for po, Initial residual = 0.000112648, Final residual = 7.78133e-06, No Iterations 51
Solving Saturation Equation
diagonal:  Solving for sw, Initial residual = 0, Final residual = 0, No Iterations 0
Q_inj = 196575
Q_prod = 196575
qw_prod = -71280.5
qo_prod = -125295

Imb = 0.998585


Cmb = 0.0553737


NewDeltaT = 11

ExecutionTime = 31.72 s  ClockTime = 42 s

Time = 33880

Solving Pressure Equation
DICPCG:  Solving for po, Initial residual = 0.000112304, Final residual = 9.55606e-06, No Iterations 52
Solving Saturation Equation
diagonal:  Solving for sw, Initial residual = 0, Final residual = 0, No Iterations 0
Q_inj = 196575
Q_prod = 196575
qw_prod = -71680.2
qo_prod = -124895

Imb = 1.0032


Cmb = 0.0558586


NewDeltaT = 11

ExecutionTime = 31.9 s  ClockTime = 42 s

Time = 33891

Solving Pressure Equation
DICPCG:  Solving for po, Initial residual = 0.000112327, Final residual = 8.0512e-06, No Iterations 47
Solving Saturation Equation
diagonal:  Solving for sw, Initial residual = 0, Final residual = 0, No Iterations 0
Q_inj = 196575
Q_prod = 196575
qw_prod = -71461.3
qo_prod = -125114

Imb = 0.99825


Cmb = 0.0560668


NewDeltaT = 11

ExecutionTime = 32.05 s  ClockTime = 42 s

Time = 33902

Solving Pressure Equation
DICPCG:  Solving for po, Initial residual = 0.000112038, Final residual = 5.87614e-06, No Iterations 63
Solving Saturation Equation
diagonal:  Solving for sw, Initial residual = 0, Final residual = 0, No Iterations 0
Q_inj = 196575
Q_prod = 196575
qw_prod = -71904.4
qo_prod = -124671

Imb = 1.00355


Cmb = 0.0565735


NewDeltaT = 11

ExecutionTime = 32.22 s  ClockTime = 43 s

Time = 33913

Solving Pressure Equation
DICPCG:  Solving for po, Initial residual = 0.000111647, Final residual = 7.46171e-06, No Iterations 47
Solving Saturation Equation
diagonal:  Solving for sw, Initial residual = 0, Final residual = 0, No Iterations 0
Q_inj = 196575
Q_prod = 196575
qw_prod = -71637.6
qo_prod = -124937

Imb = 0.997864


Cmb = 0.056758


NewDeltaT = 11

ExecutionTime = 32.39 s  ClockTime = 43 s

Time = 33924

Solving Pressure Equation
DICPCG:  Solving for po, Initial residual = 0.000111668, Final residual = 9.4158e-06, No Iterations 52
Solving Saturation Equation
diagonal:  Solving for sw, Initial residual = 0, Final residual = 0, No Iterations 0
Q_inj = 196575
Q_prod = 196575
qw_prod = -72131
qo_prod = -124444

Imb = 1.00396


Cmb = 0.0572901


NewDeltaT = 11

ExecutionTime = 32.56 s  ClockTime = 43 s

Time = 33935

Solving Pressure Equation
DICPCG:  Solving for po, Initial residual = 0.00011148, Final residual = 9.03214e-06, No Iterations 54
Solving Saturation Equation
diagonal:  Solving for sw, Initial residual = 0, Final residual = 0, No Iterations 0
Q_inj = 196575
Q_prod = 196575
qw_prod = -71809.1
qo_prod = -124766

Imb = 0.99742


Cmb = 0.0574471


NewDeltaT = 11

ExecutionTime = 32.72 s  ClockTime = 43 s

Time = 33946

Solving Pressure Equation
DICPCG:  Solving for po, Initial residual = 0.00011126, Final residual = 9.84014e-06, No Iterations 47
Solving Saturation Equation
diagonal:  Solving for sw, Initial residual = 0, Final residual = 0, No Iterations 0
Q_inj = 196575
Q_prod = 196575
qw_prod = -72360.5
qo_prod = -124215

Imb = 1.00444


Cmb = 0.0580088


NewDeltaT = 11

ExecutionTime = 32.86 s  ClockTime = 43 s

Time = 33957

Solving Pressure Equation
DICPCG:  Solving for po, Initial residual = 0.000111184, Final residual = 8.38656e-06, No Iterations 56
Solving Saturation Equation
diagonal:  Solving for sw, Initial residual = 0, Final residual = 0, No Iterations 0
Q_inj = 196575
Q_prod = 196575
qw_prod = -71975.2
qo_prod = -124600

Imb = 0.996908


Cmb = 0.0581337


NewDeltaT = 11

ExecutionTime = 33.01 s  ClockTime = 44 s

Time = 33968

Solving Pressure Equation
DICPCG:  Solving for po, Initial residual = 0.0001108, Final residual = 7.88147e-06, No Iterations 60
Solving Saturation Equation
diagonal:  Solving for sw, Initial residual = 0, Final residual = 0, No Iterations 0
Q_inj = 196575
Q_prod = 196575
qw_prod = -72593.3
qo_prod = -123982

Imb = 1.00499


Cmb = 0.05873


NewDeltaT = 11

ExecutionTime = 33.16 s  ClockTime = 44 s

Time = 33979

Solving Pressure Equation
DICPCG:  Solving for po, Initial residual = 0.00011039, Final residual = 9.47973e-06, No Iterations 48
Solving Saturation Equation
diagonal:  Solving for sw, Initial residual = 0, Final residual = 0, No Iterations 0
Q_inj = 196575
Q_prod = 196575
qw_prod = -72135.2
qo_prod = -124440

Imb = 0.996318


Cmb = 0.0588174


NewDeltaT = 11

ExecutionTime = 33.29 s  ClockTime = 44 s

Time = 33990

Solving Pressure Equation
DICPCG:  Solving for po, Initial residual = 0.000110733, Final residual = 9.27809e-06, No Iterations 55
Solving Saturation Equation
diagonal:  Solving for sw, Initial residual = 0, Final residual = 0, No Iterations 0
Q_inj = 196575
Q_prod = 196575
qw_prod = -72830.4
qo_prod = -123745

Imb = 1.00562


Cmb = 0.0594542


NewDeltaT = 11

ExecutionTime = 33.51 s  ClockTime = 44 s

Time = 34001

Solving Pressure Equation
DICPCG:  Solving for po, Initial residual = 0.00011004, Final residual = 7.38083e-06, No Iterations 50
Solving Saturation Equation
diagonal:  Solving for sw, Initial residual = 0, Final residual = 0, No Iterations 0
Q_inj = 196575
Q_prod = 196575
qw_prod = -72288.3
qo_prod = -124287

Imb = 0.995638


Cmb = 0.0594978


NewDeltaT = 11

ExecutionTime = 33.68 s  ClockTime = 44 s

Time = 34012

Solving Pressure Equation
DICPCG:  Solving for po, Initial residual = 0.000110008, Final residual = 9.72953e-06, No Iterations 57
Solving Saturation Equation
diagonal:  Solving for sw, Initial residual = 0, Final residual = 0, No Iterations 0
Q_inj = 196575
Q_prod = 196575
qw_prod = -73072.6
qo_prod = -123502

Imb = 1.00635


Cmb = 0.0601818


NewDeltaT = 11

ExecutionTime = 33.91 s  ClockTime = 45 s

Time = 34023

Solving Pressure Equation
DICPCG:  Solving for po, Initial residual = 0.000109871, Final residual = 5.91408e-06, No Iterations 63
Solving Saturation Equation
diagonal:  Solving for sw, Initial residual = 0, Final residual = 0, No Iterations 0
Q_inj = 196575
Q_prod = 196575
qw_prod = -72433.6
qo_prod = -124141

Imb = 0.994853


Cmb = 0.0601743


NewDeltaT = 11

ExecutionTime = 34.29 s  ClockTime = 45 s

Time = 34034

Solving Pressure Equation
DICPCG:  Solving for po, Initial residual = 0.000109509, Final residual = 8.35561e-06, No Iterations 47
Solving Saturation Equation
diagonal:  Solving for sw, Initial residual = 0, Final residual = 0, No Iterations 0
Q_inj = 196575
Q_prod = 196575
qw_prod = -73320.7
qo_prod = -123254

Imb = 1.0072


Cmb = 0.0609133


NewDeltaT = 11

ExecutionTime = 34.5 s  ClockTime = 45 s

Time = 34045

Solving Pressure Equation
DICPCG:  Solving for po, Initial residual = 0.000109474, Final residual = 7.68251e-06, No Iterations 50
Solving Saturation Equation
diagonal:  Solving for sw, Initial residual = 0, Final residual = 0, No Iterations 0
Q_inj = 196575
Q_prod = 196575
qw_prod = -72570.2
qo_prod = -124005

Imb = 0.993948


Cmb = 0.0608462


NewDeltaT = 11

ExecutionTime = 34.7 s  ClockTime = 46 s

Time = 34056

Solving Pressure Equation
DICPCG:  Solving for po, Initial residual = 0.000109321, Final residual = 5.94626e-06, No Iterations 53
Solving Saturation Equation
diagonal:  Solving for sw, Initial residual = 0, Final residual = 0, No Iterations 0
Q_inj = 196575
Q_prod = 196575
qw_prod = -73576
qo_prod = -122999

Imb = 1.00818


Cmb = 0.0616496


NewDeltaT = 11

ExecutionTime = 34.91 s  ClockTime = 46 s

Time = 34067

Solving Pressure Equation
DICPCG:  Solving for po, Initial residual = 0.000109191, Final residual = 7.79674e-06, No Iterations 50
Solving Saturation Equation
diagonal:  Solving for sw, Initial residual = 0, Final residual = 0, No Iterations 0
Q_inj = 196575
Q_prod = 196575
qw_prod = -72697
qo_prod = -123878

Imb = 0.992904


Cmb = 0.061513


NewDeltaT = 11

ExecutionTime = 35.1 s  ClockTime = 46 s

Time = 34078

Solving Pressure Equation
DICPCG:  Solving for po, Initial residual = 0.000108979, Final residual = 5.81773e-06, No Iterations 63
Solving Saturation Equation
diagonal:  Solving for sw, Initial residual = 0, Final residual = 0, No Iterations 0
Q_inj = 196575
Q_prod = 196575
qw_prod = -73839.6
qo_prod = -122735

Imb = 1.00931


Cmb = 0.0623914


NewDeltaT = 11

ExecutionTime = 35.26 s  ClockTime = 46 s

Time = 34089

Solving Pressure Equation
DICPCG:  Solving for po, Initial residual = 0.000108584, Final residual = 7.4442e-06, No Iterations 47
Solving Saturation Equation
diagonal:  Solving for sw, Initial residual = 0, Final residual = 0, No Iterations 0
Q_inj = 196575
Q_prod = 196575
qw_prod = -72812.4
qo_prod = -123763

Imb = 0.991701


Cmb = 0.0621736


NewDeltaT = 11

ExecutionTime = 35.41 s  ClockTime = 47 s

Time = 34100

Solving Pressure Equation
DICPCG:  Solving for po, Initial residual = 0.000108522, Final residual = 8.02871e-06, No Iterations 53
Solving Saturation Equation
diagonal:  Solving for sw, Initial residual = 0, Final residual = 0, No Iterations 0
Q_inj = 196575
Q_prod = 196575
qw_prod = -74113
qo_prod = -122462

Imb = 1.01062


Cmb = 0.0631397


NewDeltaT = 11

ExecutionTime = 35.57 s  ClockTime = 47 s

Time = 34111

Solving Pressure Equation
DICPCG:  Solving for po, Initial residual = 0.000108431, Final residual = 9.17381e-06, No Iterations 53
Solving Saturation Equation
diagonal:  Solving for sw, Initial residual = 0, Final residual = 0, No Iterations 0
Q_inj = 196575
Q_prod = 196575
qw_prod = -72915
qo_prod = -123660

Imb = 0.990312


Cmb = 0.0628272


NewDeltaT = 11

ExecutionTime = 35.71 s  ClockTime = 47 s

Time = 34122

Solving Pressure Equation
DICPCG:  Solving for po, Initial residual = 0.000108261, Final residual = 9.5043e-06, No Iterations 54
Solving Saturation Equation
diagonal:  Solving for sw, Initial residual = 0, Final residual = 0, No Iterations 0
Q_inj = 196575
Q_prod = 196575
qw_prod = -74397.9
qo_prod = -122177

Imb = 1.01214


Cmb = 0.0638955


NewDeltaT = 11

ExecutionTime = 35.87 s  ClockTime = 47 s

Time = 34133

Solving Pressure Equation
DICPCG:  Solving for po, Initial residual = 0.000108068, Final residual = 8.22842e-06, No Iterations 57
Solving Saturation Equation
diagonal:  Solving for sw, Initial residual = 0, Final residual = 0, No Iterations 0
Q_inj = 196575
Q_prod = 196575
qw_prod = -73003
qo_prod = -123572

Imb = 0.988712


Cmb = 0.0634725


NewDeltaT = 11

ExecutionTime = 36.03 s  ClockTime = 47 s

Time = 34144

Solving Pressure Equation
DICPCG:  Solving for po, Initial residual = 0.000107817, Final residual = 6.40351e-06, No Iterations 56
Solving Saturation Equation
diagonal:  Solving for sw, Initial residual = 0, Final residual = 0, No Iterations 0
Q_inj = 196575
Q_prod = 196575
qw_prod = -74696.3
qo_prod = -121879

Imb = 1.01389


Cmb = 0.0646603


NewDeltaT = 11

ExecutionTime = 36.22 s  ClockTime = 48 s

Time = 34155

Solving Pressure Equation
DICPCG:  Solving for po, Initial residual = 0.000107559, Final residual = 9.77409e-06, No Iterations 58
Solving Saturation Equation
diagonal:  Solving for sw, Initial residual = 0, Final residual = 0, No Iterations 0
Q_inj = 196575
Q_prod = 196575
qw_prod = -73074.4
qo_prod = -123501

Imb = 0.986867


Cmb = 0.0641084


NewDeltaT = 11

ExecutionTime = 36.38 s  ClockTime = 48 s

Time = 34166

Solving Pressure Equation
DICPCG:  Solving for po, Initial residual = 0.000107483, Final residual = 6.66492e-06, No Iterations 56
Solving Saturation Equation
diagonal:  Solving for sw, Initial residual = 0, Final residual = 0, No Iterations 0
Q_inj = 196575
Q_prod = 196575
qw_prod = -75010.4
qo_prod = -121565

Imb = 1.01593


Cmb = 0.0654355


NewDeltaT = 11

ExecutionTime = 36.55 s  ClockTime = 48 s

Time = 34177

Solving Pressure Equation
DICPCG:  Solving for po, Initial residual = 0.00010712, Final residual = 9.91814e-06, No Iterations 58
Solving Saturation Equation
diagonal:  Solving for sw, Initial residual = 0, Final residual = 0, No Iterations 0
Q_inj = 196575
Q_prod = 196575
qw_prod = -73126.7
qo_prod = -123448

Imb = 0.984741


Cmb = 0.0647332


NewDeltaT = 11

ExecutionTime = 36.71 s  ClockTime = 48 s

Time = 34188

Solving Pressure Equation
DICPCG:  Solving for po, Initial residual = 0.000107185, Final residual = 9.90919e-06, No Iterations 52
Solving Saturation Equation
diagonal:  Solving for sw, Initial residual = 0, Final residual = 0, No Iterations 0
Q_inj = 196575
Q_prod = 196575
qw_prod = -75342.8
qo_prod = -121232

Imb = 1.01828


Cmb = 0.0662229


NewDeltaT = 11

ExecutionTime = 36.88 s  ClockTime = 48 s

[...]
Solving Saturation Equation
diagonal:  Solving for sw, Initial residual = 0, Final residual = 0, No Iterations 0
Q_inj = 196575
Q_prod = 196575
qw_prod = -107016
qo_prod = -89559.1

Imb = 1.00047


Cmb = 0.253409


NewDeltaT = 11

ExecutionTime = 145.4 s  ClockTime = 189 s

Time = 40370

Solving Pressure Equation
DICPCG:  Solving for po, Initial residual = 6.45462e-05, Final residual = 8.41566e-06, No Iterations 46
Solving Saturation Equation
diagonal:  Solving for sw, Initial residual = 0, Final residual = 0, No Iterations 0
Q_inj = 196575
Q_prod = 196575
qw_prod = -107064
qo_prod = -89511

Imb = 1.00054


Cmb = 0.253749


NewDeltaT = 11

ExecutionTime = 145.64 s  ClockTime = 189 s

Time = 40381

Solving Pressure Equation
DICPCG:  Solving for po, Initial residual = 6.42181e-05, Final residual = 8.88001e-06, No Iterations 53
Solving Saturation Equation
diagonal:  Solving for sw, Initial residual = 0, Final residual = 0, No Iterations 0
Q_inj = 196575
Q_prod = 196575
qw_prod = -107106
qo_prod = -89468.5

Imb = 1.00048


Cmb = 0.254073


NewDeltaT = 11

ExecutionTime = 145.79 s  ClockTime = 190 s

Time = 40392

Solving Pressure Equation
DICPCG:  Solving for po, Initial residual = 6.45757e-05, Final residual = 9.88627e-06, No Iterations 49
Solving Saturation Equation
diagonal:  Solving for sw, Initial residual = 0, Final residual = 0, No Iterations 0
Q_inj = 196575
Q_prod = 196575
qw_prod = -107154
qo_prod = -89420.9

Imb = 1.00053


Cmb = 0.254411


NewDeltaT = 11

ExecutionTime = 145.93 s  ClockTime = 190 s

Time = 40403

Solving Pressure Equation
DICPCG:  Solving for po, Initial residual = 6.4938e-05, Final residual = 9.59887e-06, No Iterations 52
Solving Saturation Equation
diagonal:  Solving for sw, Initial residual = 0, Final residual = 0, No Iterations 0
Q_inj = 196575
Q_prod = 196575
qw_prod = -107197
qo_prod = -89378

Imb = 1.00048


Cmb = 0.254737


NewDeltaT = 11

ExecutionTime = 146.08 s  ClockTime = 190 s

Time = 40414

Solving Pressure Equation
DICPCG:  Solving for po, Initial residual = 6.45925e-05, Final residual = 5.52628e-06, No Iterations 57
Solving Saturation Equation
diagonal:  Solving for sw, Initial residual = 0, Final residual = 0, No Iterations 0
Q_inj = 196575
Q_prod = 196575
qw_prod = -107244
qo_prod = -89330.9

Imb = 1.00053


Cmb = 0.255074


NewDeltaT = 11

ExecutionTime = 146.24 s  ClockTime = 190 s

Time = 40425

Solving Pressure Equation
DICPCG:  Solving for po, Initial residual = 6.38863e-05, Final residual = 9.59606e-06, No Iterations 50
Solving Saturation Equation
diagonal:  Solving for sw, Initial residual = 0, Final residual = 0, No Iterations 0
Q_inj = 196575
Q_prod = 196575
qw_prod = -107287
qo_prod = -89287.6

Imb = 1.00048


Cmb = 0.2554


NewDeltaT = 11

ExecutionTime = 146.38 s  ClockTime = 190 s

Time = 40436

Solving Pressure Equation
DICPCG:  Solving for po, Initial residual = 6.4817e-05, Final residual = 8.97691e-06, No Iterations 54
Solving Saturation Equation
diagonal:  Solving for sw, Initial residual = 0, Final residual = 0, No Iterations 0
Q_inj = 196575
Q_prod = 196575
qw_prod = -107334
qo_prod = -89240.9

Imb = 1.00052


Cmb = 0.255737


NewDeltaT = 11

ExecutionTime = 146.52 s  ClockTime = 191 s

Time = 40447

Solving Pressure Equation
DICPCG:  Solving for po, Initial residual = 6.46884e-05, Final residual = 9.9921e-06, No Iterations 47
Solving Saturation Equation
diagonal:  Solving for sw, Initial residual = 0, Final residual = 0, No Iterations 0
Q_inj = 196575
Q_prod = 196575
qw_prod = -107378
qo_prod = -89197.3

Imb = 1.00049


Cmb = 0.256064


NewDeltaT = 11

ExecutionTime = 146.66 s  ClockTime = 191 s

Time = 40458

Solving Pressure Equation
DICPCG:  Solving for po, Initial residual = 6.46455e-05, Final residual = 7.6967e-06, No Iterations 54
Solving Saturation Equation
diagonal:  Solving for sw, Initial residual = 0, Final residual = 0, No Iterations 0
Q_inj = 196575
Q_prod = 196575
qw_prod = -107424
qo_prod = -89150.9

Imb = 1.00052


Cmb = 0.2564


NewDeltaT = 11

ExecutionTime = 146.81 s  ClockTime = 191 s

Time = 40469

Solving Pressure Equation
DICPCG:  Solving for po, Initial residual = 6.42696e-05, Final residual = 8.47664e-06, No Iterations 46
Solving Saturation Equation
diagonal:  Solving for sw, Initial residual = 0, Final residual = 0, No Iterations 0
Q_inj = 196575
Q_prod = 196575
qw_prod = -107468
qo_prod = -89107.2

Imb = 1.00049


Cmb = 0.256728


NewDeltaT = 11

ExecutionTime = 146.96 s  ClockTime = 191 s

Time = 40480

Solving Pressure Equation
DICPCG:  Solving for po, Initial residual = 6.40295e-05, Final residual = 9.61611e-06, No Iterations 51
Solving Saturation Equation
diagonal:  Solving for sw, Initial residual = 0, Final residual = 0, No Iterations 0
Q_inj = 196575
Q_prod = 196575
qw_prod = -107514
qo_prod = -89061

Imb = 1.00052


Cmb = 0.257063


NewDeltaT = 11

ExecutionTime = 147.1 s  ClockTime = 191 s

Time = 40491

Solving Pressure Equation
DICPCG:  Solving for po, Initial residual = 6.43468e-05, Final residual = 9.78611e-06, No Iterations 61
Solving Saturation Equation
diagonal:  Solving for sw, Initial residual = 0, Final residual = 0, No Iterations 0
Q_inj = 196575
Q_prod = 196575
qw_prod = -107558
qo_prod = -89017.1

Imb = 1.00049


Cmb = 0.257392


NewDeltaT = 11

ExecutionTime = 147.3 s  ClockTime = 192 s

Time = 40502

Solving Pressure Equation
DICPCG:  Solving for po, Initial residual = 6.47987e-05, Final residual = 9.38535e-06, No Iterations 46
Solving Saturation Equation
diagonal:  Solving for sw, Initial residual = 0, Final residual = 0, No Iterations 0
Q_inj = 196575
Q_prod = 196575
qw_prod = -107604
qo_prod = -88971.1

Imb = 1.00052


Cmb = 0.257727


NewDeltaT = 11

ExecutionTime = 147.53 s  ClockTime = 192 s

Time = 40513

Solving Pressure Equation
DICPCG:  Solving for po, Initial residual = 6.40054e-05, Final residual = 8.55681e-06, No Iterations 51
Solving Saturation Equation
diagonal:  Solving for sw, Initial residual = 0, Final residual = 0, No Iterations 0
Q_inj = 196575
Q_prod = 196575
qw_prod = -107648
qo_prod = -88927.1

Imb = 1.00049


Cmb = 0.258056


NewDeltaT = 11

ExecutionTime = 147.9 s  ClockTime = 192 s

Time = 40524

Solving Pressure Equation
DICPCG:  Solving for po, Initial residual = 6.39718e-05, Final residual = 8.46378e-06, No Iterations 47
Solving Saturation Equation
diagonal:  Solving for sw, Initial residual = 0, Final residual = 0, No Iterations 0
Q_inj = 196575
Q_prod = 196575
qw_prod = -107694
qo_prod = -88881.3

Imb = 1.00052


Cmb = 0.25839


NewDeltaT = 11

ExecutionTime = 148.23 s  ClockTime = 193 s

Time = 40535

Solving Pressure Equation
DICPCG:  Solving for po, Initial residual = 6.43916e-05, Final residual = 8.26171e-06, No Iterations 55
Solving Saturation Equation
diagonal:  Solving for sw, Initial residual = 0, Final residual = 0, No Iterations 0
Q_inj = 196575
Q_prod = 196575
qw_prod = -107738
qo_prod = -88837.1

Imb = 1.0005


Cmb = 0.25872


NewDeltaT = 11

ExecutionTime = 148.55 s  ClockTime = 193 s

Time = 40546

Solving Pressure Equation
DICPCG:  Solving for po, Initial residual = 6.39673e-05, Final residual = 8.5283e-06, No Iterations 61
Solving Saturation Equation
diagonal:  Solving for sw, Initial residual = 0, Final residual = 0, No Iterations 0
Q_inj = 196575
Q_prod = 196575
qw_prod = -107783
qo_prod = -88791.6

Imb = 1.00051


Cmb = 0.259054


NewDeltaT = 11

ExecutionTime = 148.74 s  ClockTime = 194 s

Time = 40557

Solving Pressure Equation
DICPCG:  Solving for po, Initial residual = 6.43922e-05, Final residual = 8.06718e-06, No Iterations 46
Solving Saturation Equation
diagonal:  Solving for sw, Initial residual = 0, Final residual = 0, No Iterations 0
Q_inj = 196575
Q_prod = 196575
qw_prod = -107828
qo_prod = -88747.3

Imb = 1.0005


Cmb = 0.259384


NewDeltaT = 11

ExecutionTime = 148.87 s  ClockTime = 194 s

Time = 40568

Solving Pressure Equation
DICPCG:  Solving for po, Initial residual = 6.36782e-05, Final residual = 8.16986e-06, No Iterations 51
Solving Saturation Equation
diagonal:  Solving for sw, Initial residual = 0, Final residual = 0, No Iterations 0
Q_inj = 196575
Q_prod = 196575
qw_prod = -107873
qo_prod = -88701.9

Imb = 1.00051


Cmb = 0.259718


NewDeltaT = 11

ExecutionTime = 149.03 s  ClockTime = 194 s

Time = 40579

Solving Pressure Equation
DICPCG:  Solving for po, Initial residual = 6.38822e-05, Final residual = 9.96461e-06, No Iterations 49
Solving Saturation Equation
diagonal:  Solving for sw, Initial residual = 0, Final residual = 0, No Iterations 0
Q_inj = 196575
Q_prod = 196575
qw_prod = -107917
qo_prod = -88657.5

Imb = 1.0005


Cmb = 0.260049


NewDeltaT = 11

ExecutionTime = 149.19 s  ClockTime = 194 s

Time = 40590

Solving Pressure Equation
DICPCG:  Solving for po, Initial residual = 6.43592e-05, Final residual = 9.10389e-06, No Iterations 52
Solving Saturation Equation
diagonal:  Solving for sw, Initial residual = 0, Final residual = 0, No Iterations 0
Q_inj = 196575
Q_prod = 196575
qw_prod = -107963
qo_prod = -88612.2

Imb = 1.00051


Cmb = 0.260382


NewDeltaT = 11

ExecutionTime = 149.34 s  ClockTime = 194 s

Time = 40601

Solving Pressure Equation
DICPCG:  Solving for po, Initial residual = 6.40603e-05, Final residual = 8.49695e-06, No Iterations 57
Solving Saturation Equation
diagonal:  Solving for sw, Initial residual = 0, Final residual = 0, No Iterations 0
Q_inj = 196575
Q_prod = 196575
qw_prod = -108007
qo_prod = -88567.9

Imb = 1.0005


Cmb = 0.260713


NewDeltaT = 11

ExecutionTime = 149.49 s  ClockTime = 195 s

Time = 40612

Solving Pressure Equation
DICPCG:  Solving for po, Initial residual = 6.3608e-05, Final residual = 9.4888e-06, No Iterations 51
Solving Saturation Equation
diagonal:  Solving for sw, Initial residual = 0, Final residual = 0, No Iterations 0
Q_inj = 196575
Q_prod = 196575
qw_prod = -108052
qo_prod = -88522.7

Imb = 1.00051


Cmb = 0.261047


NewDeltaT = 11

ExecutionTime = 149.63 s  ClockTime = 195 s

Time = 40623

Solving Pressure Equation
DICPCG:  Solving for po, Initial residual = 6.41694e-05, Final residual = 9.0551e-06, No Iterations 50
Solving Saturation Equation
diagonal:  Solving for sw, Initial residual = 0, Final residual = 0, No Iterations 0
Q_inj = 196575
Q_prod = 196575
qw_prod = -108097
qo_prod = -88478.2

Imb = 1.0005


Cmb = 0.261378


NewDeltaT = 11

ExecutionTime = 149.78 s  ClockTime = 195 s

Time = 40634

Solving Pressure Equation
DICPCG:  Solving for po, Initial residual = 6.41606e-05, Final residual = 5.68155e-06, No Iterations 57
Solving Saturation Equation
diagonal:  Solving for sw, Initial residual = 0, Final residual = 0, No Iterations 0
Q_inj = 196575
Q_prod = 196575
qw_prod = -108142
qo_prod = -88433.3

Imb = 1.00051


Cmb = 0.261711


NewDeltaT = 11

ExecutionTime = 149.93 s  ClockTime = 195 s

Time = 40645

Solving Pressure Equation
DICPCG:  Solving for po, Initial residual = 6.33031e-05, Final residual = 8.55802e-06, No Iterations 50
Solving Saturation Equation
diagonal:  Solving for sw, Initial residual = 0, Final residual = 0, No Iterations 0
Q_inj = 196575
Q_prod = 196575
qw_prod = -108186
qo_prod = -88388.7

Imb = 1.00051


Cmb = 0.262043


NewDeltaT = 11

ExecutionTime = 150.07 s  ClockTime = 195 s

Time = 40656

Solving Pressure Equation
DICPCG:  Solving for po, Initial residual = 6.39562e-05, Final residual = 8.64937e-06, No Iterations 54
Solving Saturation Equation
diagonal:  Solving for sw, Initial residual = 0, Final residual = 0, No Iterations 0
Q_inj = 196575
Q_prod = 196575
qw_prod = -108231
qo_prod = -88343.9

Imb = 1.00051


Cmb = 0.262376


NewDeltaT = 11

ExecutionTime = 150.23 s  ClockTime = 196 s

Time = 40667

Solving Pressure Equation
DICPCG:  Solving for po, Initial residual = 6.40061e-05, Final residual = 9.94929e-06, No Iterations 48
Solving Saturation Equation
diagonal:  Solving for sw, Initial residual = 0, Final residual = 0, No Iterations 0
Q_inj = 196575
Q_prod = 196575
qw_prod = -108276
qo_prod = -88299.3

Imb = 1.00051


Cmb = 0.262708


NewDeltaT = 11

ExecutionTime = 150.43 s  ClockTime = 196 s

Time = 40678

Solving Pressure Equation
DICPCG:  Solving for po, Initial residual = 6.40082e-05, Final residual = 9.39995e-06, No Iterations 52
Solving Saturation Equation
diagonal:  Solving for sw, Initial residual = 0, Final residual = 0, No Iterations 0
Q_inj = 196575
Q_prod = 196575
qw_prod = -108320
qo_prod = -88254.6

Imb = 1.00051


Cmb = 0.26304


NewDeltaT = 11

ExecutionTime = 150.61 s  ClockTime = 196 s

Time = 40689

Solving Pressure Equation
DICPCG:  Solving for po, Initial residual = 6.37587e-05, Final residual = 7.86564e-06, No Iterations 50
Solving Saturation Equation
diagonal:  Solving for sw, Initial residual = 0, Final residual = 0, No Iterations 0
Q_inj = 196575
Q_prod = 196575
qw_prod = -108365
qo_prod = -88210

Imb = 1.00051


Cmb = 0.263373


NewDeltaT = 11

ExecutionTime = 150.97 s  ClockTime = 197 s

Time = 40700

Solving Pressure Equation
DICPCG:  Solving for po, Initial residual = 6.35356e-05, Final residual = 8.41602e-06, No Iterations 52
Solving Saturation Equation
diagonal:  Solving for sw, Initial residual = 0, Final residual = 0, No Iterations 0
Q_inj = 196575
Q_prod = 196575
qw_prod = -108410
qo_prod = -88165.3

Imb = 1.00051


Cmb = 0.263705


NewDeltaT = 11

ExecutionTime = 151.28 s  ClockTime = 197 s

Time = 40711

Solving Pressure Equation
DICPCG:  Solving for po, Initial residual = 6.34333e-05, Final residual = 8.28868e-06, No Iterations 50
Solving Saturation Equation
diagonal:  Solving for sw, Initial residual = 0, Final residual = 0, No Iterations 0
Q_inj = 196575
Q_prod = 196575
qw_prod = -108454
qo_prod = -88120.7

Imb = 1.00051


Cmb = 0.264038


NewDeltaT = 11

ExecutionTime = 151.51 s  ClockTime = 197 s

Time = 40722

Solving Pressure Equation
DICPCG:  Solving for po, Initial residual = 6.36173e-05, Final residual = 9.36408e-06, No Iterations 61
Solving Saturation Equation
diagonal:  Solving for sw, Initial residual = 0, Final residual = 0, No Iterations 0
Q_inj = 196575
Q_prod = 196575
qw_prod = -108499
qo_prod = -88076.2

Imb = 1.00051


Cmb = 0.26437


NewDeltaT = 11

ExecutionTime = 151.71 s  ClockTime = 198 s

Time = 40733

Solving Pressure Equation
DICPCG:  Solving for po, Initial residual = 6.41911e-05, Final residual = 6.5191e-06, No Iterations 50
Solving Saturation Equation
diagonal:  Solving for sw, Initial residual = 0, Final residual = 0, No Iterations 0
Q_inj = 196575
Q_prod = 196575
qw_prod = -108543
qo_prod = -88031.5

Imb = 1.00051


Cmb = 0.264703


NewDeltaT = 11

ExecutionTime = 151.85 s  ClockTime = 198 s

Time = 40744

Solving Pressure Equation
DICPCG:  Solving for po, Initial residual = 6.32846e-05, Final residual = 8.21611e-06, No Iterations 54
Solving Saturation Equation
diagonal:  Solving for sw, Initial residual = 0, Final residual = 0, No Iterations 0
Q_inj = 196575
Q_prod = 196575
qw_prod = -108588
qo_prod = -87987.1

Imb = 1.00051


Cmb = 0.265035


NewDeltaT = 11

ExecutionTime = 152.03 s  ClockTime = 198 s

Time = 40755

Solving Pressure Equation
DICPCG:  Solving for po, Initial residual = 6.36583e-05, Final residual = 9.93422e-06, No Iterations 47
Solving Saturation Equation
diagonal:  Solving for sw, Initial residual = 0, Final residual = 0, No Iterations 0
Q_inj = 196575
Q_prod = 196575
qw_prod = -108633
qo_prod = -87942.5

Imb = 1.00051


Cmb = 0.265368


NewDeltaT = 11

ExecutionTime = 152.18 s  ClockTime = 198 s

Time = 40766

Solving Pressure Equation
DICPCG:  Solving for po, Initial residual = 6.39877e-05, Final residual = 9.53257e-06, No Iterations 54
Solving Saturation Equation
diagonal:  Solving for sw, Initial residual = 0, Final residual = 0, No Iterations 0
Q_inj = 196575
Q_prod = 196575
qw_prod = -108677
qo_prod = -87898.1

Imb = 1.00051


Cmb = 0.265701


NewDeltaT = 11

ExecutionTime = 152.32 s  ClockTime = 199 s

Time = 40777

Solving Pressure Equation
DICPCG:  Solving for po, Initial residual = 6.38045e-05, Final residual = 9.90922e-06, No Iterations 57
Solving Saturation Equation
diagonal:  Solving for sw, Initial residual = 0, Final residual = 0, No Iterations 0
Q_inj = 196575
Q_prod = 196575
qw_prod = -108721
qo_prod = -87853.5

Imb = 1.00051


Cmb = 0.266034


NewDeltaT = 11

ExecutionTime = 152.48 s  ClockTime = 199 s

Time = 40788

Solving Pressure Equation
DICPCG:  Solving for po, Initial residual = 6.36665e-05, Final residual = 7.58188e-06, No Iterations 55
Solving Saturation Equation
diagonal:  Solving for sw, Initial residual = 0, Final residual = 0, No Iterations 0
Q_inj = 196575
Q_prod = 196575
qw_prod = -108766
qo_prod = -87809.1

Imb = 1.00051


Cmb = 0.266366


NewDeltaT = 11

ExecutionTime = 152.61 s  ClockTime = 199 s

Time = 40799

Solving Pressure Equation
DICPCG:  Solving for po, Initial residual = 6.32381e-05, Final residual = 9.26556e-06, No Iterations 57
Solving Saturation Equation
diagonal:  Solving for sw, Initial residual = 0, Final residual = 0, No Iterations 0
Q_inj = 196575
Q_prod = 196575
qw_prod = -108810
qo_prod = -87764.6

Imb = 1.00051


Cmb = 0.266699


NewDeltaT = 11

ExecutionTime = 152.76 s  ClockTime = 199 s

Time = 40810

Solving Pressure Equation
DICPCG:  Solving for po, Initial residual = 6.34015e-05, Final residual = 9.81064e-06, No Iterations 52
Solving Saturation Equation
diagonal:  Solving for sw, Initial residual = 0, Final residual = 0, No Iterations 0
Q_inj = 196575
Q_prod = 196575
qw_prod = -108855
qo_prod = -87720.3

Imb = 1.00051


Cmb = 0.267032


NewDeltaT = 11

ExecutionTime = 152.92 s  ClockTime = 199 s

Time = 40821

Solving Pressure Equation
DICPCG:  Solving for po, Initial residual = 6.34434e-05, Final residual = 7.46983e-06, No Iterations 57
Solving Saturation Equation
diagonal:  Solving for sw, Initial residual = 0, Final residual = 0, No Iterations 0
Q_inj = 196575
Q_prod = 196575
qw_prod = -108899
qo_prod = -87675.9

Imb = 1.00051


Cmb = 0.267364


NewDeltaT = 11

ExecutionTime = 153.07 s  ClockTime = 199 s

Time = 40832

Solving Pressure Equation
DICPCG:  Solving for po, Initial residual = 6.29312e-05, Final residual = 9.63957e-06, No Iterations 53
Solving Saturation Equation
diagonal:  Solving for sw, Initial residual = 0, Final residual = 0, No Iterations 0
Q_inj = 196575
Q_prod = 196575
qw_prod = -108943
qo_prod = -87631.6

Imb = 1.00051


Cmb = 0.267697


NewDeltaT = 11

ExecutionTime = 153.23 s  ClockTime = 200 s

Time = 40843

Solving Pressure Equation
DICPCG:  Solving for po, Initial residual = 6.36969e-05, Final residual = 5.48795e-06, No Iterations 50
Solving Saturation Equation
diagonal:  Solving for sw, Initial residual = 0, Final residual = 0, No Iterations 0
Q_inj = 196575
Q_prod = 196575
qw_prod = -108988
qo_prod = -87587.2

Imb = 1.00051


Cmb = 0.26803


NewDeltaT = 11

ExecutionTime = 153.44 s  ClockTime = 200 s

Time = 40854

Solving Pressure Equation
DICPCG:  Solving for po, Initial residual = 6.28326e-05, Final residual = 9.34996e-06, No Iterations 56
Solving Saturation Equation
diagonal:  Solving for sw, Initial residual = 0, Final residual = 0, No Iterations 0
Q_inj = 196575
Q_prod = 196575
qw_prod = -109032
qo_prod = -87542.8

Imb = 1.00051


Cmb = 0.268363


NewDeltaT = 11

ExecutionTime = 153.99 s  ClockTime = 201 s

Time = 40865

Solving Pressure Equation
DICPCG:  Solving for po, Initial residual = 6.37133e-05, Final residual = 9.87058e-06, No Iterations 61
Solving Saturation Equation
diagonal:  Solving for sw, Initial residual = 0, Final residual = 0, No Iterations 0
Q_inj = 196575
Q_prod = 196575
qw_prod = -109076
qo_prod = -87498.7

Imb = 1.0005


Cmb = 0.268696


NewDeltaT = 11

ExecutionTime = 154.32 s  ClockTime = 201 s

Time = 40876

Solving Pressure Equation
DICPCG:  Solving for po, Initial residual = 6.39438e-05, Final residual = 8.77842e-06, No Iterations 47
Solving Saturation Equation
diagonal:  Solving for sw, Initial residual = 0, Final residual = 0, No Iterations 0
Q_inj = 196575
Q_prod = 196575
qw_prod = -109121
qo_prod = -87454.3

Imb = 1.00051


Cmb = 0.269029


NewDeltaT = 11

ExecutionTime = 154.48 s  ClockTime = 201 s

End

